data/pglib_opf_case10192_epigrids_storage.m
%%%%%%%%%%%%%%%%%%%%%%%%%%%%%%%%%%%%%%%%%%%%%%%%%%%%%%%%%%%%%%%%%%%%%%%%%%%
%%%%                                                                  %%%%%
%%%%    IEEE PES Power Grid Library - Optimal Power Flow - v23.07     %%%%%
%%%%          (https://github.com/power-grid-lib/pglib-opf)           %%%%%
%%%%               Benchmark Group - Typical Operations               %%%%%
%%%%                         23 - July - 2023                         %%%%%
%%%%                                                                  %%%%%
%%%%%%%%%%%%%%%%%%%%%%%%%%%%%%%%%%%%%%%%%%%%%%%%%%%%%%%%%%%%%%%%%%%%%%%%%%%
%
%   This is a synthetic power system network model that covers the geographic
%   footprint of three midwest states (Michigan, Ohio and Indiana). The case is
%   designed with a 765, 345, 138 and 69 kV transmission network to serve a
%   load that roughly mimics the actual population of its geographic footprint.
%   The synthetic transmission system was designed by algorithms described in
%   [1] to be statistically similar to actual transmission system models but
%   without modeling any actual lines.
%
%   One-line diagrams and other data formats available at:
%   https://github.com/WISPO-POP/SyntheticElectricNetworkModels
%   https://electricgrids.engr.tamu.edu
%
%   This synthetic dateset was developed as part of the ARPA-E GRID DATA
%   program as part of the EPIGRIDS project.
%
%   When publishing results based on this data, please cite:
%
%   [1] J. M. Snodgrass, "Tractable Algorithms for Constructing Electric Power Network Models,"
%      Ph.D. Thesis, The University of Wisconsin - Madison, 2021.
%
%   Copyright (c) 2022 by J. Snodgrass, S. Greene, B. Lesieutre, C. DeMarco
%   Licensed under the Creative Commons Attribution 4.0
%   International license, http://creativecommons.org/licenses/by/4.0/
%
% Modified to have additional storage capacity and increased gencost
function mpc = pglib_opf_case10192_epigrids
mpc.version = '2';
mpc.baseMVA = 100.0;

%% bus data
%	bus_i	type	Pd	Qd	Gs	Bs	area	Vm	Va	baseKV	zone	Vmax	Vmin
mpc.bus = [
	20401	 2	 0.0	 0.0	 0.0	 0.0	 9	    1.00000	    0.00000	 345.0	 1	    1.10000	    0.90000;
	20402	 2	 0.0	 0.0	 0.0	 0.0	 9	    1.00000	    0.00000	 765.0	 1	    1.10000	    0.90000;
	20403	 2	 0.0	 0.0	 0.0	 0.0	 9	    1.00000	    0.00000	 345.0	 1	    1.10000	    0.90000;
	20404	 2	 0.0	 0.0	 0.0	 0.0	 9	    1.00000	    0.00000	 765.0	 1	    1.10000	    0.90000;
	20405	 2	 0.0	 0.0	 0.0	 0.0	 9	    1.00000	    0.00000	 345.0	 1	    1.10000	    0.90000;
	20406	 2	 0.0	 0.0	 0.0	 0.0	 9	    1.00000	    0.00000	 765.0	 1	    1.10000	    0.90000;
	20407	 2	 0.0	 0.0	 0.0	 0.0	 9	    1.00000	    0.00000	 345.0	 1	    1.10000	    0.90000;
	20408	 2	 0.0	 0.0	 0.0	 0.0	 9	    1.00000	    0.00000	 345.0	 1	    1.10000	    0.90000;
	20409	 2	 0.0	 0.0	 0.0	 0.0	 9	    1.00000	    0.00000	 345.0	 1	    1.10000	    0.90000;
	20410	 2	 0.0	 0.0	 0.0	 0.0	 9	    1.00000	    0.00000	 345.0	 1	    1.10000	    0.90000;
	20411	 2	 0.0	 0.0	 0.0	 0.0	 9	    1.00000	    0.00000	 345.0	 1	    1.10000	    0.90000;
	20412	 2	 0.0	 0.0	 0.0	 0.0	 9	    1.00000	    0.00000	 345.0	 1	    1.10000	    0.90000;
	20413	 2	 0.0	 0.0	 0.0	 0.0	 9	    1.00000	    0.00000	 765.0	 1	    1.10000	    0.90000;
	20414	 2	 0.0	 0.0	 0.0	 0.0	 9	    1.00000	    0.00000	 345.0	 1	    1.10000	    0.90000;
	20415	 2	 0.0	 0.0	 0.0	 0.0	 9	    1.00000	    0.00000	 345.0	 1	    1.10000	    0.90000;
	20416	 2	 0.0	 0.0	 0.0	 0.0	 9	    1.00000	    0.00000	 138.0	 1	    1.10000	    0.90000;
	20417	 2	 0.0	 0.0	 0.0	 0.0	 9	    1.00000	    0.00000	 765.0	 1	    1.10000	    0.90000;
	20418	 2	 0.0	 0.0	 0.0	 0.0	 9	    1.00000	    0.00000	 345.0	 1	    1.10000	    0.90000;
	20419	 2	 0.0	 0.0	 0.0	 0.0	 9	    1.00000	    0.00000	 345.0	 1	    1.10000	    0.90000;
	20420	 1	 0.0	 0.0	 0.0	 0.0	 9	    1.00000	    0.00000	 345.0	 1	    1.10000	    0.90000;
	20421	 2	 0.0	 0.0	 0.0	 0.0	 9	    1.00000	    0.00000	 138.0	 1	    1.10000	    0.90000;
	20422	 2	 0.0	 0.0	 0.0	 0.0	 9	    1.00000	    0.00000	 345.0	 1	    1.10000	    0.90000;
	20423	 2	 0.0	 0.0	 0.0	 0.0	 9	    1.00000	    0.00000	 345.0	 1	    1.10000	    0.90000;
	20424	 1	 0.0	 0.0	 0.0	 0.0	 9	    1.00000	    0.00000	 345.0	 1	    1.10000	    0.90000;
	20425	 2	 0.0	 0.0	 0.0	 0.0	 9	    1.00000	    0.00000	 765.0	 1	    1.10000	    0.90000;
	20426	 1	 0.0	 0.0	 0.0	 0.0	 9	    1.00000	    0.00000	 345.0	 1	    1.10000	    0.90000;
	20427	 1	 0.0	 0.0	 0.0	 0.0	 9	    1.00000	    0.00000	 345.0	 1	    1.10000	    0.90000;
	20428	 2	 0.0	 0.0	 0.0	 0.0	 9	    1.00000	    0.00000	 345.0	 1	    1.10000	    0.90000;
	20429	 2	 0.0	 0.0	 0.0	 0.0	 9	    1.00000	    0.00000	 138.0	 1	    1.10000	    0.90000;
	20430	 2	 0.0	 0.0	 0.0	 0.0	 9	    1.00000	    0.00000	 345.0	 1	    1.10000	    0.90000;
	20431	 2	 0.0	 0.0	 0.0	 0.0	 9	    1.00000	    0.00000	 138.0	 1	    1.10000	    0.90000;
	20432	 2	 0.0	 0.0	 0.0	 0.0	 9	    1.00000	    0.00000	 138.0	 1	    1.10000	    0.90000;
	20433	 2	 0.0	 0.0	 0.0	 0.0	 9	    1.00000	    0.00000	 138.0	 1	    1.10000	    0.90000;
	20434	 2	 0.0	 0.0	 0.0	 0.0	 9	    1.00000	    0.00000	 138.0	 1	    1.10000	    0.90000;
	20435	 2	 0.0	 0.0	 0.0	 0.0	 9	    1.00000	    0.00000	 138.0	 1	    1.10000	    0.90000;
	20436	 2	 0.0	 0.0	 0.0	 0.0	 9	    1.00000	    0.00000	 345.0	 1	    1.10000	    0.90000;
	20437	 2	 0.0	 0.0	 0.0	 0.0	 9	    1.00000	    0.00000	 345.0	 1	    1.10000	    0.90000;
	20438	 2	 0.0	 0.0	 0.0	 0.0	 9	    1.00000	    0.00000	 345.0	 1	    1.10000	    0.90000;
	20439	 2	 0.0	 0.0	 0.0	 0.0	 9	    1.00000	    0.00000	 138.0	 1	    1.10000	    0.90000;
	20440	 2	 0.0	 0.0	 0.0	 0.0	 9	    1.00000	    0.00000	 345.0	 1	    1.10000	    0.90000;
	20441	 1	 0.0	 0.0	 0.0	 0.0	 9	    1.00000	    0.00000	 345.0	 1	    1.10000	    0.90000;
	20442	 2	 0.0	 0.0	 0.0	 0.0	 9	    1.00000	    0.00000	 345.0	 1	    1.10000	    0.90000;
	20443	 1	 0.0	 0.0	 0.0	 0.0	 9	    1.00000	    0.00000	 345.0	 1	    1.10000	    0.90000;
	20444	 2	 0.0	 0.0	 0.0	 0.0	 9	    1.00000	    0.00000	 138.0	 1	    1.10000	    0.90000;
	20445	 2	 0.0	 0.0	 0.0	 0.0	 9	    1.00000	    0.00000	 138.0	 1	    1.10000	    0.90000;
	20446	 2	 0.0	 0.0	 0.0	 0.0	 9	    1.00000	    0.00000	 138.0	 1	    1.10000	    0.90000;
	20447	 1	 0.0	 0.0	 0.0	 0.0	 9	    1.00000	    0.00000	 345.0	 1	    1.10000	    0.90000;
	20448	 2	 0.0	 0.0	 0.0	 0.0	 9	    1.00000	    0.00000	 138.0	 1	    1.10000	    0.90000;
	20449	 2	 0.0	 0.0	 0.0	 0.0	 9	    1.00000	    0.00000	 138.0	 1	    1.10000	    0.90000;
	20450	 2	 0.0	 0.0	 0.0	 0.0	 9	    1.00000	    0.00000	 138.0	 1	    1.10000	    0.90000;
	20451	 2	 0.0	 0.0	 0.0	 0.0	 9	    1.00000	    0.00000	 69.0	 1	    1.10000	    0.90000;
	20452	 2	 0.0	 0.0	 0.0	 0.0	 9	    1.00000	    0.00000	 69.0	 1	    1.10000	    0.90000;
	20453	 2	 0.0	 0.0	 0.0	 0.0	 9	    1.00000	    0.00000	 69.0	 1	    1.10000	    0.90000;
	20454	 2	 0.0	 0.0	 0.0	 0.0	 9	    1.00000	    0.00000	 69.0	 1	    1.10000	    0.90000;
	20455	 2	 0.0	 0.0	 0.0	 0.0	 9	    1.00000	    0.00000	 138.0	 1	    1.10000	    0.90000;
	20456	 1	 0.0	 0.0	 0.0	 0.0	 9	    1.00000	    0.00000	 138.0	 1	    1.10000	    0.90000;
	20457	 2	 0.0	 0.0	 0.0	 0.0	 9	    1.00000	    0.00000	 138.0	 1	    1.10000	    0.90000;
	20458	 2	 0.0	 0.0	 0.0	 0.0	 17	    1.00000	    0.00000	 765.0	 1	    1.10000	    0.90000;
	20459	 2	 0.0	 0.0	 0.0	 0.0	 17	    1.00000	    0.00000	 765.0	 1	    1.10000	    0.90000;
	20460	 2	 0.0	 0.0	 0.0	 0.0	 17	    1.00000	    0.00000	 345.0	 1	    1.10000	    0.90000;
	20461	 2	 0.0	 0.0	 0.0	 0.0	 17	    1.00000	    0.00000	 765.0	 1	    1.10000	    0.90000;
	20462	 2	 0.0	 0.0	 0.0	 0.0	 17	    1.00000	    0.00000	 345.0	 1	    1.10000	    0.90000;
	20463	 2	 0.0	 0.0	 0.0	 0.0	 17	    1.00000	    0.00000	 345.0	 1	    1.10000	    0.90000;
	20464	 2	 0.0	 0.0	 0.0	 0.0	 17	    1.00000	    0.00000	 345.0	 1	    1.10000	    0.90000;
	20465	 2	 0.0	 0.0	 0.0	 0.0	 17	    1.00000	    0.00000	 345.0	 1	    1.10000	    0.90000;
	20466	 2	 0.0	 0.0	 0.0	 0.0	 17	    1.00000	    0.00000	 138.0	 1	    1.10000	    0.90000;
	20467	 2	 0.0	 0.0	 0.0	 0.0	 17	    1.00000	    0.00000	 345.0	 1	    1.10000	    0.90000;
	20468	 2	 0.0	 0.0	 0.0	 0.0	 17	    1.00000	    0.00000	 345.0	 1	    1.10000	    0.90000;
	20469	 2	 0.0	 0.0	 0.0	 0.0	 17	    1.00000	    0.00000	 345.0	 1	    1.10000	    0.90000;
	20470	 2	 0.0	 0.0	 0.0	 0.0	 17	    1.00000	    0.00000	 138.0	 1	    1.10000	    0.90000;
	20471	 2	 0.0	 0.0	 0.0	 0.0	 17	    1.00000	    0.00000	 345.0	 1	    1.10000	    0.90000;
	20472	 2	 0.0	 0.0	 0.0	 0.0	 17	    1.00000	    0.00000	 138.0	 1	    1.10000	    0.90000;
	20473	 2	 0.0	 0.0	 0.0	 0.0	 17	    1.00000	    0.00000	 345.0	 1	    1.10000	    0.90000;
	20474	 1	 0.0	 0.0	 0.0	 0.0	 17	    1.00000	    0.00000	 345.0	 1	    1.10000	    0.90000;
	20475	 2	 0.0	 0.0	 0.0	 0.0	 17	    1.00000	    0.00000	 138.0	 1	    1.10000	    0.90000;
	20476	 2	 0.0	 0.0	 0.0	 0.0	 17	    1.00000	    0.00000	 345.0	 1	    1.10000	    0.90000;
	20477	 2	 0.0	 0.0	 0.0	 0.0	 17	    1.00000	    0.00000	 345.0	 1	    1.10000	    0.90000;
	20478	 1	 0.0	 0.0	 0.0	 0.0	 17	    1.00000	    0.00000	 765.0	 1	    1.10000	    0.90000;
	20479	 2	 0.0	 0.0	 0.0	 0.0	 17	    1.00000	    0.00000	 345.0	 1	    1.10000	    0.90000;
	20480	 2	 0.0	 0.0	 0.0	 0.0	 17	    1.00000	    0.00000	 345.0	 1	    1.10000	    0.90000;
	20481	 2	 0.0	 0.0	 0.0	 0.0	 17	    1.00000	    0.00000	 138.0	 1	    1.10000	    0.90000;
	20482	 1	 0.0	 0.0	 0.0	 0.0	 17	    1.00000	    0.00000	 345.0	 1	    1.10000	    0.90000;
	20483	 2	 0.0	 0.0	 0.0	 0.0	 17	    1.00000	    0.00000	 138.0	 1	    1.10000	    0.90000;
	20484	 1	 0.0	 0.0	 0.0	 0.0	 17	    1.00000	    0.00000	 345.0	 1	    1.10000	    0.90000;
	20485	 2	 0.0	 0.0	 0.0	 0.0	 17	    1.00000	    0.00000	 138.0	 1	    1.10000	    0.90000;
	20486	 1	 0.0	 0.0	 0.0	 0.0	 17	    1.00000	    0.00000	 345.0	 1	    1.10000	    0.90000;
	20487	 2	 0.0	 0.0	 0.0	 0.0	 17	    1.00000	    0.00000	 138.0	 1	    1.10000	    0.90000;
	20488	 1	 0.0	 0.0	 0.0	 0.0	 17	    1.00000	    0.00000	 138.0	 1	    1.10000	    0.90000;
	20489	 2	 0.0	 0.0	 0.0	 0.0	 17	    1.00000	    0.00000	 138.0	 1	    1.10000	    0.90000;
	20490	 2	 0.0	 0.0	 0.0	 0.0	 17	    1.00000	    0.00000	 138.0	 1	    1.10000	    0.90000;
	20491	 1	 0.0	 0.0	 0.0	 0.0	 17	    1.00000	    0.00000	 138.0	 1	    1.10000	    0.90000;
	20492	 1	 0.0	 0.0	 0.0	 0.0	 17	    1.00000	    0.00000	 138.0	 1	    1.10000	    0.90000;
	20493	 2	 0.0	 0.0	 0.0	 0.0	 17	    1.00000	    0.00000	 69.0	 1	    1.10000	    0.90000;
	20494	 2	 0.0	 0.0	 0.0	 0.0	 17	    1.00000	    0.00000	 138.0	 1	    1.10000	    0.90000;
	20495	 1	 0.0	 0.0	 0.0	 0.0	 17	    1.00000	    0.00000	 138.0	 1	    1.10000	    0.90000;
	20496	 2	 0.0	 0.0	 0.0	 0.0	 17	    1.00000	    0.00000	 69.0	 1	    1.10000	    0.90000;
	20497	 2	 0.0	 0.0	 0.0	 0.0	 17	    1.00000	    0.00000	 69.0	 1	    1.10000	    0.90000;
	20498	 2	 0.0	 0.0	 0.0	 0.0	 17	    1.00000	    0.00000	 69.0	 1	    1.10000	    0.90000;
	20499	 1	 0.0	 0.0	 0.0	 0.0	 17	    1.00000	    0.00000	 138.0	 1	    1.10000	    0.90000;
	20500	 2	 0.0	 0.0	 0.0	 0.0	 17	    1.00000	    0.00000	 345.0	 1	    1.10000	    0.90000;
	20501	 1	 0.0	 0.0	 0.0	 0.0	 17	    1.00000	    0.00000	 138.0	 1	    1.10000	    0.90000;
	20502	 2	 0.0	 0.0	 0.0	 0.0	 17	    1.00000	    0.00000	 138.0	 1	    1.10000	    0.90000;
	20503	 1	 0.0	 0.0	 0.0	 0.0	 17	    1.00000	    0.00000	 138.0	 1	    1.10000	    0.90000;
	20504	 2	 0.0	 0.0	 0.0	 0.0	 17	    1.00000	    0.00000	 69.0	 1	    1.10000	    0.90000;
	20505	 2	 0.0	 0.0	 0.0	 0.0	 17	    1.00000	    0.00000	 345.0	 1	    1.10000	    0.90000;
	20506	 2	 0.0	 0.0	 0.0	 0.0	 17	    1.00000	    0.00000	 69.0	 1	    1.10000	    0.90000;
	20507	 2	 0.0	 0.0	 0.0	 0.0	 17	    1.00000	    0.00000	 138.0	 1	    1.10000	    0.90000;
	20508	 1	 0.0	 0.0	 0.0	 0.0	 17	    1.00000	    0.00000	 138.0	 1	    1.10000	    0.90000;
	20509	 2	 0.0	 0.0	 0.0	 0.0	 17	    1.00000	    0.00000	 69.0	 1	    1.10000	    0.90000;
	20510	 2	 0.0	 0.0	 0.0	 0.0	 17	    1.00000	    0.00000	 69.0	 1	    1.10000	    0.90000;
	20511	 1	 0.0	 0.0	 0.0	 0.0	 17	    1.00000	    0.00000	 345.0	 1	    1.10000	    0.90000;
	20512	 2	 0.0	 0.0	 0.0	 0.0	 17	    1.00000	    0.00000	 69.0	 1	    1.10000	    0.90000;
	20513	 2	 0.0	 0.0	 0.0	 0.0	 17	    1.00000	    0.00000	 69.0	 1	    1.10000	    0.90000;
	20514	 2	 0.0	 0.0	 0.0	 0.0	 17	    1.00000	    0.00000	 69.0	 1	    1.10000	    0.90000;
	20515	 2	 0.0	 0.0	 0.0	 0.0	 17	    1.00000	    0.00000	 69.0	 1	    1.10000	    0.90000;
	20516	 2	 0.0	 0.0	 0.0	 0.0	 17	    1.00000	    0.00000	 138.0	 1	    1.10000	    0.90000;
	20517	 2	 0.0	 0.0	 0.0	 0.0	 17	    1.00000	    0.00000	 69.0	 1	    1.10000	    0.90000;
	20518	 2	 0.0	 0.0	 0.0	 0.0	 17	    1.00000	    0.00000	 69.0	 1	    1.10000	    0.90000;
	20519	 1	 0.0	 0.0	 0.0	 0.0	 17	    1.00000	    0.00000	 138.0	 1	    1.10000	    0.90000;
	20520	 2	 0.0	 0.0	 0.0	 0.0	 17	    1.00000	    0.00000	 69.0	 1	    1.10000	    0.90000;
	20521	 1	 0.0	 0.0	 0.0	 0.0	 17	    1.00000	    0.00000	 138.0	 1	    1.10000	    0.90000;
	20522	 2	 0.0	 0.0	 0.0	 0.0	 17	    1.00000	    0.00000	 69.0	 1	    1.10000	    0.90000;
	20523	 2	 0.0	 0.0	 0.0	 0.0	 17	    1.00000	    0.00000	 69.0	 1	    1.10000	    0.90000;
	20524	 2	 0.0	 0.0	 0.0	 0.0	 17	    1.00000	    0.00000	 138.0	 1	    1.10000	    0.90000;
	20525	 1	 0.0	 0.0	 0.0	 0.0	 17	    1.00000	    0.00000	 138.0	 1	    1.10000	    0.90000;
	20526	 1	 0.0	 0.0	 0.0	 0.0	 17	    1.00000	    0.00000	 138.0	 1	    1.10000	    0.90000;
	20527	 2	 0.0	 0.0	 0.0	 0.0	 17	    1.00000	    0.00000	 138.0	 1	    1.10000	    0.90000;
	20528	 2	 0.0	 0.0	 0.0	 0.0	 17	    1.00000	    0.00000	 69.0	 1	    1.10000	    0.90000;
	20529	 2	 0.0	 0.0	 0.0	 0.0	 17	    1.00000	    0.00000	 69.0	 1	    1.10000	    0.90000;
	20530	 2	 0.0	 0.0	 0.0	 0.0	 17	    1.00000	    0.00000	 69.0	 1	    1.10000	    0.90000;
	20531	 2	 0.0	 0.0	 0.0	 0.0	 27	    1.00000	    0.00000	 765.0	 1	    1.10000	    0.90000;
	20532	 3	 0.0	 0.0	 0.0	 0.0	 27	    1.00000	    0.00000	 345.0	 1	    1.10000	    0.90000;
	20533	 2	 0.0	 0.0	 0.0	 0.0	 27	    1.00000	    0.00000	 765.0	 1	    1.10000	    0.90000;
	20534	 2	 0.0	 0.0	 0.0	 0.0	 27	    1.00000	    0.00000	 345.0	 1	    1.10000	    0.90000;
	20535	 2	 0.0	 0.0	 0.0	 0.0	 27	    1.00000	    0.00000	 345.0	 1	    1.10000	    0.90000;
	20536	 2	 0.0	 0.0	 0.0	 0.0	 27	    1.00000	    0.00000	 345.0	 1	    1.10000	    0.90000;
	20537	 2	 0.0	 0.0	 0.0	 0.0	 27	    1.00000	    0.00000	 765.0	 1	    1.10000	    0.90000;
	20538	 2	 0.0	 0.0	 0.0	 0.0	 27	    1.00000	    0.00000	 345.0	 1	    1.10000	    0.90000;
	20539	 1	 0.0	 0.0	 0.0	 0.0	 27	    1.00000	    0.00000	 345.0	 1	    1.10000	    0.90000;
	20540	 2	 0.0	 0.0	 0.0	 0.0	 27	    1.00000	    0.00000	 138.0	 1	    1.10000	    0.90000;
	20541	 2	 0.0	 0.0	 0.0	 0.0	 27	    1.00000	    0.00000	 765.0	 1	    1.10000	    0.90000;
	20542	 2	 0.0	 0.0	 0.0	 0.0	 27	    1.00000	    0.00000	 345.0	 1	    1.10000	    0.90000;
	20543	 2	 0.0	 0.0	 0.0	 0.0	 27	    1.00000	    0.00000	 345.0	 1	    1.10000	    0.90000;
	20544	 2	 0.0	 0.0	 0.0	 0.0	 27	    1.00000	    0.00000	 345.0	 1	    1.10000	    0.90000;
	20545	 2	 0.0	 0.0	 0.0	 0.0	 27	    1.00000	    0.00000	 345.0	 1	    1.10000	    0.90000;
	20546	 2	 0.0	 0.0	 0.0	 0.0	 27	    1.00000	    0.00000	 345.0	 1	    1.10000	    0.90000;
	20547	 2	 0.0	 0.0	 0.0	 0.0	 27	    1.00000	    0.00000	 345.0	 1	    1.10000	    0.90000;
	20548	 2	 0.0	 0.0	 0.0	 0.0	 27	    1.00000	    0.00000	 345.0	 1	    1.10000	    0.90000;
	20549	 2	 0.0	 0.0	 0.0	 0.0	 27	    1.00000	    0.00000	 765.0	 1	    1.10000	    0.90000;
	20550	 2	 0.0	 0.0	 0.0	 0.0	 27	    1.00000	    0.00000	 345.0	 1	    1.10000	    0.90000;
	20551	 2	 0.0	 0.0	 0.0	 0.0	 27	    1.00000	    0.00000	 138.0	 1	    1.10000	    0.90000;
	20552	 2	 0.0	 0.0	 0.0	 0.0	 27	    1.00000	    0.00000	 138.0	 1	    1.10000	    0.90000;
	20553	 2	 0.0	 0.0	 0.0	 0.0	 27	    1.00000	    0.00000	 138.0	 1	    1.10000	    0.90000;
	20554	 2	 0.0	 0.0	 0.0	 0.0	 27	    1.00000	    0.00000	 345.0	 1	    1.10000	    0.90000;
	20555	 2	 0.0	 0.0	 0.0	 0.0	 27	    1.00000	    0.00000	 345.0	 1	    1.10000	    0.90000;
	20556	 2	 0.0	 0.0	 0.0	 0.0	 27	    1.00000	    0.00000	 138.0	 1	    1.10000	    0.90000;
	20557	 2	 0.0	 0.0	 0.0	 0.0	 27	    1.00000	    0.00000	 345.0	 1	    1.10000	    0.90000;
	20558	 1	 0.0	 0.0	 0.0	 0.0	 27	    1.00000	    0.00000	 345.0	 1	    1.10000	    0.90000;
	20559	 2	 0.0	 0.0	 0.0	 0.0	 27	    1.00000	    0.00000	 345.0	 1	    1.10000	    0.90000;
	20560	 2	 0.0	 0.0	 0.0	 0.0	 27	    1.00000	    0.00000	 345.0	 1	    1.10000	    0.90000;
	20561	 2	 0.0	 0.0	 0.0	 0.0	 27	    1.00000	    0.00000	 345.0	 1	    1.10000	    0.90000;
	20562	 2	 0.0	 0.0	 0.0	 0.0	 27	    1.00000	    0.00000	 345.0	 1	    1.10000	    0.90000;
	20563	 2	 0.0	 0.0	 0.0	 0.0	 27	    1.00000	    0.00000	 345.0	 1	    1.10000	    0.90000;
	20564	 2	 0.0	 0.0	 0.0	 0.0	 27	    1.00000	    0.00000	 345.0	 1	    1.10000	    0.90000;
	20565	 2	 0.0	 0.0	 0.0	 0.0	 27	    1.00000	    0.00000	 345.0	 1	    1.10000	    0.90000;
	20566	 2	 0.0	 0.0	 0.0	 0.0	 27	    1.00000	    0.00000	 138.0	 1	    1.10000	    0.90000;
	20567	 2	 0.0	 0.0	 0.0	 0.0	 27	    1.00000	    0.00000	 345.0	 1	    1.10000	    0.90000;
	20568	 2	 0.0	 0.0	 0.0	 0.0	 27	    1.00000	    0.00000	 345.0	 1	    1.10000	    0.90000;
	20569	 2	 0.0	 0.0	 0.0	 0.0	 27	    1.00000	    0.00000	 138.0	 1	    1.10000	    0.90000;
	20570	 2	 0.0	 0.0	 0.0	 0.0	 27	    1.00000	    0.00000	 138.0	 1	    1.10000	    0.90000;
	20571	 2	 0.0	 0.0	 0.0	 0.0	 27	    1.00000	    0.00000	 69.0	 1	    1.10000	    0.90000;
	20572	 2	 0.0	 0.0	 0.0	 0.0	 27	    1.00000	    0.00000	 69.0	 1	    1.10000	    0.90000;
	20573	 2	 0.0	 0.0	 0.0	 0.0	 27	    1.00000	    0.00000	 138.0	 1	    1.10000	    0.90000;
	20574	 1	 0.0	 0.0	 0.0	 0.0	 27	    1.00000	    0.00000	 138.0	 1	    1.10000	    0.90000;
	20575	 2	 0.0	 0.0	 0.0	 0.0	 27	    1.00000	    0.00000	 69.0	 1	    1.10000	    0.90000;
	20576	 1	 0.0	 0.0	 0.0	 0.0	 27	    1.00000	    0.00000	 138.0	 1	    1.10000	    0.90000;
	20577	 2	 0.0	 0.0	 0.0	 0.0	 27	    1.00000	    0.00000	 138.0	 1	    1.10000	    0.90000;
	20578	 2	 0.0	 0.0	 0.0	 0.0	 27	    1.00000	    0.00000	 138.0	 1	    1.10000	    0.90000;
	20579	 2	 0.0	 0.0	 0.0	 0.0	 27	    1.00000	    0.00000	 69.0	 1	    1.10000	    0.90000;
	20580	 2	 0.0	 0.0	 0.0	 0.0	 27	    1.00000	    0.00000	 69.0	 1	    1.10000	    0.90000;
	20581	 2	 0.0	 0.0	 0.0	 0.0	 27	    1.00000	    0.00000	 138.0	 1	    1.10000	    0.90000;
	20582	 1	 0.0	 0.0	 0.0	 0.0	 27	    1.00000	    0.00000	 138.0	 1	    1.10000	    0.90000;
	20583	 1	 0.0	 0.0	 0.0	 0.0	 27	    1.00000	    0.00000	 138.0	 1	    1.10000	    0.90000;
	20584	 2	 0.0	 0.0	 0.0	 0.0	 27	    1.00000	    0.00000	 138.0	 1	    1.10000	    0.90000;
	20585	 2	 0.0	 0.0	 0.0	 0.0	 27	    1.00000	    0.00000	 138.0	 1	    1.10000	    0.90000;
	20586	 1	 0.0	 0.0	 0.0	 0.0	 27	    1.00000	    0.00000	 138.0	 1	    1.10000	    0.90000;
	20587	 2	 0.0	 0.0	 0.0	 0.0	 27	    1.00000	    0.00000	 138.0	 1	    1.10000	    0.90000;
	20588	 2	 0.0	 0.0	 0.0	 0.0	 27	    1.00000	    0.00000	 69.0	 1	    1.10000	    0.90000;
	20589	 2	 0.0	 0.0	 0.0	 0.0	 27	    1.00000	    0.00000	 345.0	 1	    1.10000	    0.90000;
	20590	 2	 0.0	 0.0	 0.0	 0.0	 27	    1.00000	    0.00000	 138.0	 1	    1.10000	    0.90000;
	20591	 2	 0.0	 0.0	 0.0	 0.0	 27	    1.00000	    0.00000	 69.0	 1	    1.10000	    0.90000;
	20592	 2	 0.0	 0.0	 0.0	 0.0	 27	    1.00000	    0.00000	 69.0	 1	    1.10000	    0.90000;
	20593	 1	 17.18	 4.25	 0.0	 0.0	 9	    1.00000	    0.00000	 138.0	 1	    1.10000	    0.90000;
	20594	 1	 84.89	 19.91	 0.0	 0.0	 9	    1.00000	    0.00000	 138.0	 1	    1.10000	    0.90000;
	20595	 1	 19.98	 4.67	 0.0	 0.0	 9	    1.00000	    0.00000	 138.0	 1	    1.10000	    0.90000;
	20596	 1	 5.39	 1.26	 0.0	 0.0	 9	    1.00000	    0.00000	 138.0	 1	    1.10000	    0.90000;
	20597	 1	 0.0	 0.0	 0.0	 0.0	 9	    1.00000	    0.00000	 138.0	 1	    1.10000	    0.90000;
	20598	 1	 0.0	 0.0	 0.0	 0.0	 9	    1.00000	    0.00000	 138.0	 1	    1.10000	    0.90000;
	20599	 1	 19.49	 5.38	 0.0	 0.0	 9	    1.00000	    0.00000	 138.0	 1	    1.10000	    0.90000;
	20600	 1	 0.0	 0.0	 0.0	 0.0	 9	    1.00000	    0.00000	 138.0	 1	    1.10000	    0.90000;
...
];

%% generator data
%	bus	Pg	Qg	Qmax	Qmin	Vg	mBase	status	Pmax	Pmin	Pc1	Pc2	Qc1min	Qc1max	Qc2min	Qc2max	ramp_agc	ramp_10	ramp_30	ramp_q	apf
mpc.gen = [
	20401	 900.0	 98.15	 629.6	 -433.3	 1.0	 100.0	 1	 1300.0	 500.0	 0.0	 0.0	 0.0	 0.0	 0.0	 0.0	 0.0	 0.0	 0.0	 0.0	 1300.0;
	20401	 0.0	 0.0	 629.6	 -433.3	 1.0	 100.0	 0	 1300.0	 500.0	 0.0	 0.0	 0.0	 0.0	 0.0	 0.0	 0.0	 0.0	 0.0	 0.0	 1300.0;
	20402	 458.95	 50.45	 323.5	 -222.6	 1.0	 100.0	 1	 667.9	 250.0	 0.0	 0.0	 0.0	 0.0	 0.0	 0.0	 0.0	 0.0	 0.0	 0.0	 667.9;
	20402	 458.95	 50.45	 323.5	 -222.6	 1.0	 100.0	 1	 667.9	 250.0	 0.0	 0.0	 0.0	 0.0	 0.0	 0.0	 0.0	 0.0	 0.0	 0.0	 667.9;
	20402	 458.95	 50.45	 323.5	 -222.6	 1.0	 100.0	 1	 667.9	 250.0	 0.0	 0.0	 0.0	 0.0	 0.0	 0.0	 0.0	 0.0	 0.0	 0.0	 667.9;
	20402	 448.95	 50.45	 323.5	 -222.6	 1.0	 100.0	 1	 667.9	 230.0	 0.0	 0.0	 0.0	 0.0	 0.0	 0.0	 0.0	 0.0	 0.0	 0.0	 667.9;
	20402	 448.95	 50.45	 323.5	 -222.6	 1.0	 100.0	 1	 667.9	 230.0	 0.0	 0.0	 0.0	 0.0	 0.0	 0.0	 0.0	 0.0	 0.0	 0.0	 667.9;
	20403	 44.975	 8.45	 40.2	 -23.3	 1.0	 100.0	 1	 70.0	 19.95	 0.0	 0.0	 0.0	 0.0	 0.0	 0.0	 0.0	 0.0	 0.0	 0.0	 70.0;
	20403	 44.975	 8.45	 40.2	 -23.3	 1.0	 100.0	 1	 70.0	 19.95	 0.0	 0.0	 0.0	 0.0	 0.0	 0.0	 0.0	 0.0	 0.0	 0.0	 70.0;
	20403	 425.0	 40.75	 261.5	 -180.0	 1.0	 100.0	 1	 540.0	 310.0	 0.0	 0.0	 0.0	 0.0	 0.0	 0.0	 0.0	 0.0	 0.0	 0.0	 540.0;
	20404	 400.0	 40.75	 261.5	 -180.0	 1.0	 100.0	 1	 540.0	 260.0	 0.0	 0.0	 0.0	 0.0	 0.0	 0.0	 0.0	 0.0	 0.0	 0.0	 540.0;
	20404	 400.0	 40.75	 261.5	 -180.0	 1.0	 100.0	 1	 540.0	 260.0	 0.0	 0.0	 0.0	 0.0	 0.0	 0.0	 0.0	 0.0	 0.0	 0.0	 540.0;
	20405	 83.75	 8.5	 54.5	 -37.5	 1.0	 100.0	 1	 112.5	 55.0	 0.0	 0.0	 0.0	 0.0	 0.0	 0.0	 0.0	 0.0	 0.0	 0.0	 112.5;
	20405	 415.5	 40.1	 257.2	 -177.0	 1.0	 100.0	 1	 531.0	 300.0	 0.0	 0.0	 0.0	 0.0	 0.0	 0.0	 0.0	 0.0	 0.0	 0.0	 531.0;
	20405	 380.5	 40.1	 257.2	 -177.0	 1.0	 100.0	 1	 531.0	 230.0	 0.0	 0.0	 0.0	 0.0	 0.0	 0.0	 0.0	 0.0	 0.0	 0.0	 531.0;
	20406	 447.95	 96.1	 415.8	 -223.6	 1.0	 100.0	 1	 670.9	 225.0	 0.0	 0.0	 0.0	 0.0	 0.0	 0.0	 0.0	 0.0	 0.0	 0.0	 670.9;
	20406	 445.45	 96.1	 415.8	 -223.6	 1.0	 100.0	 1	 670.9	 220.0	 0.0	 0.0	 0.0	 0.0	 0.0	 0.0	 0.0	 0.0	 0.0	 0.0	 670.9;
	20406	 205.8	 40.3	 174.5	 -93.9	 1.0	 100.0	 1	 281.6	 130.0	 0.0	 0.0	 0.0	 0.0	 0.0	 0.0	 0.0	 0.0	 0.0	 0.0	 281.6;
	20406	 374.15	 74.95	 324.3	 -174.4	 1.0	 100.0	 1	 523.3	 225.0	 0.0	 0.0	 0.0	 0.0	 0.0	 0.0	 0.0	 0.0	 0.0	 0.0	 523.3;
	20407	 49.1	 12.65	 54.7	 -29.4	 1.0	 100.0	 1	 88.2	 10.0	 0.0	 0.0	 0.0	 0.0	 0.0	 0.0	 0.0	 0.0	 0.0	 0.0	 88.2;
	20407	 49.1	 12.65	 54.7	 -29.4	 1.0	 100.0	 1	 88.2	 10.0	 0.0	 0.0	 0.0	 0.0	 0.0	 0.0	 0.0	 0.0	 0.0	 0.0	 88.2;
	20407	 192.6	 20.0	 128.4	 -88.4	 1.0	 100.0	 1	 265.2	 120.0	 0.0	 0.0	 0.0	 0.0	 0.0	 0.0	 0.0	 0.0	 0.0	 0.0	 265.2;
	20407	 192.6	 20.0	 128.4	 -88.4	 1.0	 100.0	 1	 265.2	 120.0	 0.0	 0.0	 0.0	 0.0	 0.0	 0.0	 0.0	 0.0	 0.0	 0.0	 265.2;
	20408	 190.15	 36.8	 146.0	 -72.4	 1.0	 100.0	 1	 217.3	 163.0	 0.0	 0.0	 0.0	 0.0	 0.0	 0.0	 0.0	 0.0	 0.0	 0.0	 217.3;
	20408	 190.15	 36.8	 146.0	 -72.4	 1.0	 100.0	 1	 217.3	 163.0	 0.0	 0.0	 0.0	 0.0	 0.0	 0.0	 0.0	 0.0	 0.0	 0.0	 217.3;
	20408	 190.15	 36.8	 146.0	 -72.4	 1.0	 100.0	 1	 217.3	 163.0	 0.0	 0.0	 0.0	 0.0	 0.0	 0.0	 0.0	 0.0	 0.0	 0.0	 217.3;
	20408	 190.15	 36.8	 146.0	 -72.4	 1.0	 100.0	 1	 217.3	 163.0	 0.0	 0.0	 0.0	 0.0	 0.0	 0.0	 0.0	 0.0	 0.0	 0.0	 217.3;
	20408	 190.15	 36.8	 146.0	 -72.4	 1.0	 100.0	 1	 217.3	 163.0	 0.0	 0.0	 0.0	 0.0	 0.0	 0.0	 0.0	 0.0	 0.0	 0.0	 217.3;
	20408	 190.15	 36.8	 146.0	 -72.4	 1.0	 100.0	 1	 217.3	 163.0	 0.0	 0.0	 0.0	 0.0	 0.0	 0.0	 0.0	 0.0	 0.0	 0.0	 217.3;
	20409	 156.6	 29.1	 125.9	 -67.7	 1.0	 100.0	 1	 203.2	 110.0	 0.0	 0.0	 0.0	 0.0	 0.0	 0.0	 0.0	 0.0	 0.0	 0.0	 203.2;
	20409	 156.6	 29.1	 125.9	 -67.7	 1.0	 100.0	 1	 203.2	 110.0	 0.0	 0.0	 0.0	 0.0	 0.0	 0.0	 0.0	 0.0	 0.0	 0.0	 203.2;
	20409	 161.5	 30.5	 132.0	 -71.0	 1.0	 100.0	 1	 213.0	 110.0	 0.0	 0.0	 0.0	 0.0	 0.0	 0.0	 0.0	 0.0	 0.0	 0.0	 213.0;
	20410	 100.65	 15.05	 96.7	 -66.6	 1.0	 100.0	 1	 199.7	 1.6	 0.0	 0.0	 0.0	 0.0	 0.0	 0.0	 0.0	 0.0	 0.0	 0.0	 0.0;
	20411	 145.2	 27.25	 118.0	 -63.5	 1.0	 100.0	 1	 190.4	 100.0	 0.0	 0.0	 0.0	 0.0	 0.0	 0.0	 0.0	 0.0	 0.0	 0.0	 190.4;
	20411	 28.75	 5.35	 23.2	 -12.5	 1.0	 100.0	 1	 37.5	 20.0	 0.0	 0.0	 0.0	 0.0	 0.0	 0.0	 0.0	 0.0	 0.0	 0.0	 37.5;
	20411	 281.55	 59.15	 256.0	 -137.7	 1.0	 100.0	 1	 413.1	 150.0	 0.0	 0.0	 0.0	 0.0	 0.0	 0.0	 0.0	 0.0	 0.0	 0.0	 413.1;
	20412	 136.95	 26.05	 112.7	 -60.6	 1.0	 100.0	 1	 181.9	 92.0	 0.0	 0.0	 0.0	 0.0	 0.0	 0.0	 0.0	 0.0	 0.0	 0.0	 181.9;
	20412	 136.95	 26.05	 112.7	 -60.6	 1.0	 100.0	 1	 181.9	 92.0	 0.0	 0.0	 0.0	 0.0	 0.0	 0.0	 0.0	 0.0	 0.0	 0.0	 181.9;
	20412	 119.0	 16.1	 103.2	 -71.0	 1.0	 100.0	 1	 213.0	 25.0	 0.0	 0.0	 0.0	 0.0	 0.0	 0.0	 0.0	 0.0	 0.0	 0.0	 213.0;
	20413	 122.0	 24.9	 107.8	 -58.0	 1.0	 100.0	 1	 174.0	 70.0	 0.0	 0.0	 0.0	 0.0	 0.0	 0.0	 0.0	 0.0	 0.0	 0.0	 174.0;
	20413	 122.0	 24.9	 107.8	 -58.0	 1.0	 100.0	 1	 174.0	 70.0	 0.0	 0.0	 0.0	 0.0	 0.0	 0.0	 0.0	 0.0	 0.0	 0.0	 174.0;
	20413	 122.0	 24.9	 107.8	 -58.0	 1.0	 100.0	 1	 174.0	 70.0	 0.0	 0.0	 0.0	 0.0	 0.0	 0.0	 0.0	 0.0	 0.0	 0.0	 174.0;
	20413	 122.0	 24.9	 107.8	 -58.0	 1.0	 100.0	 1	 174.0	 70.0	 0.0	 0.0	 0.0	 0.0	 0.0	 0.0	 0.0	 0.0	 0.0	 0.0	 174.0;
	20413	 169.0	 38.4	 166.1	 -89.3	 1.0	 100.0	 1	 268.0	 70.0	 0.0	 0.0	 0.0	 0.0	 0.0	 0.0	 0.0	 0.0	 0.0	 0.0	 268.0;
	20413	 169.0	 38.4	 166.1	 -89.3	 1.0	 100.0	 1	 268.0	 70.0	 0.0	 0.0	 0.0	 0.0	 0.0	 0.0	 0.0	 0.0	 0.0	 0.0	 268.0;
	20414	 77.0	 14.35	 62.0	 -33.3	 1.0	 100.0	 1	 100.0	 54.0	 0.0	 0.0	 0.0	 0.0	 0.0	 0.0	 0.0	 0.0	 0.0	 0.0	 100.0;
	20414	 16.95	 4.15	 17.65	 -9.35	 1.0	 100.0	 1	 28.05	 5.85	 0.0	 0.0	 0.0	 0.0	 0.0	 0.0	 0.0	 0.0	 0.0	 0.0	 28.05;
	20414	 16.95	 4.15	 17.65	 -9.35	 1.0	 100.0	 1	 28.05	 5.85	 0.0	 0.0	 0.0	 0.0	 0.0	 0.0	 0.0	 0.0	 0.0	 0.0	 28.05;
	20414	 341.5	 66.3	 286.9	 -154.3	 1.0	 100.0	 1	 463.0	 220.0	 0.0	 0.0	 0.0	 0.0	 0.0	 0.0	 0.0	 0.0	 0.0	 0.0	 463.0;
	20414	 77.0	 14.35	 62.0	 -33.3	 1.0	 100.0	 1	 100.0	 54.0	 0.0	 0.0	 0.0	 0.0	 0.0	 0.0	 0.0	 0.0	 0.0	 0.0	 100.0;
	20414	 64.0	 17.3	 62.3	 -27.7	 1.0	 100.0	 1	 83.0	 45.0	 0.0	 0.0	 0.0	 0.0	 0.0	 0.0	 0.0	 0.0	 0.0	 0.0	 83.0;
	20414	 64.0	 17.3	 62.3	 -27.7	 1.0	 100.0	 1	 83.0	 45.0	 0.0	 0.0	 0.0	 0.0	 0.0	 0.0	 0.0	 0.0	 0.0	 0.0	 83.0;
	20414	 125.5	 23.05	 99.8	 -53.7	 1.0	 100.0	 1	 161.0	 90.0	 0.0	 0.0	 0.0	 0.0	 0.0	 0.0	 0.0	 0.0	 0.0	 0.0	 161.0;
	20414	 16.95	 4.15	 17.65	 -9.35	 1.0	 100.0	 1	 28.05	 5.85	 0.0	 0.0	 0.0	 0.0	 0.0	 0.0	 0.0	 0.0	 0.0	 0.0	 28.05;
	20414	 16.95	 4.15	 17.65	 -9.35	 1.0	 100.0	 1	 28.05	 5.85	 0.0	 0.0	 0.0	 0.0	 0.0	 0.0	 0.0	 0.0	 0.0	 0.0	 28.05;
	20414	 16.95	 4.15	 17.65	 -9.35	 1.0	 100.0	 1	 28.05	 5.85	 0.0	 0.0	 0.0	 0.0	 0.0	 0.0	 0.0	 0.0	 0.0	 0.0	 28.05;
	20414	 16.95	 4.15	 17.65	 -9.35	 1.0	 100.0	 1	 28.05	 5.85	 0.0	 0.0	 0.0	 0.0	 0.0	 0.0	 0.0	 0.0	 0.0	 0.0	 28.05;
	20415	 103.3	 23.85	 103.2	 -55.5	 1.0	 100.0	 1	 166.6	 40.0	 0.0	 0.0	 0.0	 0.0	 0.0	 0.0	 0.0	 0.0	 0.0	 0.0	 166.6;
	20415	 103.3	 23.85	 103.2	 -55.5	 1.0	 100.0	 1	 166.6	 40.0	 0.0	 0.0	 0.0	 0.0	 0.0	 0.0	 0.0	 0.0	 0.0	 0.0	 166.6;
	20415	 103.3	 23.85	 103.2	 -55.5	 1.0	 100.0	 1	 166.6	 40.0	 0.0	 0.0	 0.0	 0.0	 0.0	 0.0	 0.0	 0.0	 0.0	 0.0	 166.6;
	20415	 201.5	 46.25	 200.2	 -107.7	 1.0	 100.0	 1	 323.0	 80.0	 0.0	 0.0	 0.0	 0.0	 0.0	 0.0	 0.0	 0.0	 0.0	 0.0	 323.0;
	20416	 105.5	 12.15	 78.0	 -53.7	 1.0	 100.0	 1	 161.0	 50.0	 0.0	 0.0	 0.0	 0.0	 0.0	 0.0	 0.0	 0.0	 0.0	 0.0	 161.0;
	20417	 101.25	 31.8	 114.4	 -50.8	 1.0	 100.0	 1	 152.5	 50.0	 0.0	 0.0	 0.0	 0.0	 0.0	 0.0	 0.0	 0.0	 0.0	 0.0	 152.5;
	20417	 101.25	 31.8	 114.4	 -50.8	 1.0	 100.0	 1	 152.5	 50.0	 0.0	 0.0	 0.0	 0.0	 0.0	 0.0	 0.0	 0.0	 0.0	 0.0	 152.5;
	20417	 140.2	 44.9	 161.6	 -71.8	 1.0	 100.0	 1	 215.4	 65.0	 0.0	 0.0	 0.0	 0.0	 0.0	 0.0	 0.0	 0.0	 0.0	 0.0	 215.4;
	20417	 439.85	 83.05	 359.3	 -193.2	 1.0	 100.0	 1	 579.7	 300.0	 0.0	 0.0	 0.0	 0.0	 0.0	 0.0	 0.0	 0.0	 0.0	 0.0	 579.7;
	20418	 28.5	 0.0	 18.1	 -18.1	 1.0	 100.0	 1	 55.0	 2.0	 0.0	 0.0	 0.0	 0.0	 0.0	 0.0	 0.0	 0.0	 0.0	 0.0	 55.0;
	20418	 16.4	 3.22	 16.58	 -10.14	 1.0	 100.0	 1	 30.4	 2.4	 0.0	 0.0	 0.0	 0.0	 0.0	 0.0	 0.0	 0.0	 0.0	 0.0	 30.4;
	20418	 16.4	 3.22	 16.58	 -10.14	 1.0	 100.0	 1	 30.4	 2.4	 0.0	 0.0	 0.0	 0.0	 0.0	 0.0	 0.0	 0.0	 0.0	 0.0	 30.4;
	20418	 16.4	 3.22	 16.58	 -10.14	 1.0	 100.0	 1	 30.4	 2.4	 0.0	 0.0	 0.0	 0.0	 0.0	 0.0	 0.0	 0.0	 0.0	 0.0	 30.4;
	20418	 16.4	 3.22	 16.58	 -10.14	 1.0	 100.0	 1	 30.4	 2.4	 0.0	 0.0	 0.0	 0.0	 0.0	 0.0	 0.0	 0.0	 0.0	 0.0	 30.4;
	20418	 16.4	 3.22	 16.58	 -10.14	 1.0	 100.0	 1	 30.4	 2.4	 0.0	 0.0	 0.0	 0.0	 0.0	 0.0	 0.0	 0.0	 0.0	 0.0	 30.4;
	20418	 22.0	 5.75	 24.8	 -13.3	 1.0	 100.0	 1	 40.0	 4.0	 0.0	 0.0	 0.0	 0.0	 0.0	 0.0	 0.0	 0.0	 0.0	 0.0	 40.0;
	20418	 17.0	 4.55	 19.8	 -10.7	 1.0	 100.0	 1	 32.0	 2.0	 0.0	 0.0	 0.0	 0.0	 0.0	 0.0	 0.0	 0.0	 0.0	 0.0	 32.0;
	20419	 107.5	 21.5	 93.0	 -50.0	 1.0	 100.0	 1	 150.0	 65.0	 0.0	 0.0	 0.0	 0.0	 0.0	 0.0	 0.0	 0.0	 0.0	 0.0	 150.0;
	20419	 107.5	 21.5	 93.0	 -50.0	 1.0	 100.0	 1	 150.0	 65.0	 0.0	 0.0	 0.0	 0.0	 0.0	 0.0	 0.0	 0.0	 0.0	 0.0	 150.0;
	20419	 104.25	 21.5	 93.0	 -50.0	 1.0	 100.0	 1	 150.0	 58.5	 0.0	 0.0	 0.0	 0.0	 0.0	 0.0	 0.0	 0.0	 0.0	 0.0	 150.0;
	20419	 104.25	 21.5	 93.0	 -50.0	 1.0	 100.0	 1	 150.0	 58.5	 0.0	 0.0	 0.0	 0.0	 0.0	 0.0	 0.0	 0.0	 0.0	 0.0	 150.0;
	20421	 99.5	 9.75	 62.5	 -43.0	 1.0	 100.0	 1	 129.0	 70.0	 0.0	 0.0	 0.0	 0.0	 0.0	 0.0	 0.0	 0.0	 0.0	 0.0	 129.0;
	20421	 99.5	 9.75	 62.5	 -43.0	 1.0	 100.0	 1	 129.0	 70.0	 0.0	 0.0	 0.0	 0.0	 0.0	 0.0	 0.0	 0.0	 0.0	 0.0	 129.0;
	20422	 86.315	 16.15	 78.3	 -46.0	 1.0	 100.0	 1	 138.1	 34.53	 0.0	 0.0	 0.0	 0.0	 0.0	 0.0	 0.0	 0.0	 0.0	 0.0	 138.1;
	20422	 88.61	 23.9	 90.3	 -42.5	 1.0	 100.0	 1	 127.5	 49.72	 0.0	 0.0	 0.0	 0.0	 0.0	 0.0	 0.0	 0.0	 0.0	 0.0	 127.5;
	20422	 88.96	 24.0	 90.7	 -42.7	 1.0	 100.0	 1	 128.0	 49.92	 0.0	 0.0	 0.0	 0.0	 0.0	 0.0	 0.0	 0.0	 0.0	 0.0	 128.0;
	20422	 88.96	 24.0	 90.7	 -42.7	 1.0	 100.0	 1	 128.0	 49.92	 0.0	 0.0	 0.0	 0.0	 0.0	 0.0	 0.0	 0.0	 0.0	 0.0	 128.0;
	20423	 85.05	 9.45	 60.6	 -41.7	 1.0	 100.0	 1	 125.1	 45.0	 0.0	 0.0	 0.0	 0.0	 0.0	 0.0	 0.0	 0.0	 0.0	 0.0	 125.1;
	20423	 85.05	 9.45	 60.6	 -41.7	 1.0	 100.0	 1	 125.1	 45.0	 0.0	 0.0	 0.0	 0.0	 0.0	 0.0	 0.0	 0.0	 0.0	 0.0	 125.1;
	20423	 85.05	 9.45	 60.6	 -41.7	 1.0	 100.0	 1	 125.1	 45.0	 0.0	 0.0	 0.0	 0.0	 0.0	 0.0	 0.0	 0.0	 0.0	 0.0	 125.1;
	20423	 85.05	 9.45	 60.6	 -41.7	 1.0	 100.0	 1	 125.1	 45.0	 0.0	 0.0	 0.0	 0.0	 0.0	 0.0	 0.0	 0.0	 0.0	 0.0	 125.1;
	20425	 91.0	 17.9	 77.5	 -41.7	 1.0	 100.0	 1	 125.0	 57.0	 0.0	 0.0	 0.0	 0.0	 0.0	 0.0	 0.0	 0.0	 0.0	 0.0	 125.0;
	20425	 86.6	 17.65	 76.4	 -41.1	 1.0	 100.0	 1	 123.2	 50.0	 0.0	 0.0	 0.0	 0.0	 0.0	 0.0	 0.0	 0.0	 0.0	 0.0	 123.2;
	20425	 81.25	 16.1	 69.7	 -37.5	 1.0	 100.0	 1	 112.5	 50.0	 0.0	 0.0	 0.0	 0.0	 0.0	 0.0	 0.0	 0.0	 0.0	 0.0	 112.5;
	20425	 81.25	 16.1	 69.7	 -37.5	 1.0	 100.0	 1	 112.5	 50.0	 0.0	 0.0	 0.0	 0.0	 0.0	 0.0	 0.0	 0.0	 0.0	 0.0	 112.5;
	20425	 83.75	 23.45	 84.4	 -37.5	 1.0	 100.0	 1	 112.5	 55.0	 0.0	 0.0	 0.0	 0.0	 0.0	 0.0	 0.0	 0.0	 0.0	 0.0	 112.5;
	20425	 146.0	 40.0	 144.0	 -64.0	 1.0	 100.0	 1	 192.0	 100.0	 0.0	 0.0	 0.0	 0.0	 0.0	 0.0	 0.0	 0.0	 0.0	 0.0	 192.0;
	20425	 258.5	 55.4	 239.8	 -129.0	 1.0	 100.0	 1	 387.0	 130.0	 0.0	 0.0	 0.0	 0.0	 0.0	 0.0	 0.0	 0.0	 0.0	 0.0	 387.0;
	20428	 74.35	 14.85	 64.3	 -34.6	 1.0	 100.0	 1	 103.7	 45.0	 0.0	 0.0	 0.0	 0.0	 0.0	 0.0	 0.0	 0.0	 0.0	 0.0	 103.7;
	20428	 200.1	 0.0	 87.2	 -87.2	 1.0	 100.0	 1	 265.2	 135.0	 0.0	 0.0	 0.0	 0.0	 0.0	 0.0	 0.0	 0.0	 0.0	 0.0	 265.2;
	20429	 52.45	 0.0	 45.6	 -45.6	 1.0	 100.0	 1	 103.5	 1.4	 0.0	 0.0	 0.0	 0.0	 0.0	 0.0	 0.0	 0.0	 0.0	 0.0	 0.0;
	20430	 101.8	 15.1	 96.9	 -66.7	 1.0	 100.0	 1	 200.0	 3.6	 0.0	 0.0	 0.0	 0.0	 0.0	 0.0	 0.0	 0.0	 0.0	 0.0	 0.0;
	20430	 100.95	 15.2	 97.5	 -67.1	 1.0	 100.0	 1	 201.3	 0.6	 0.0	 0.0	 0.0	 0.0	 0.0	 0.0	 0.0	 0.0	 0.0	 0.0	 0.0;
	20430	 60.0	 0.0	 44.1	 -44.1	 1.0	 100.0	 1	 100.0	 20.0	 0.0	 0.0	 0.0	 0.0	 0.0	 0.0	 0.0	 0.0	 0.0	 0.0	 0.0;
	20430	 49.65	 0.0	 43.7	 -43.7	 1.0	 100.0	 1	 99.0	 0.3	 0.0	 0.0	 0.0	 0.0	 0.0	 0.0	 0.0	 0.0	 0.0	 0.0	 0.0;
	20431	 50.25	 0.0	 43.7	 -43.7	 1.0	 100.0	 1	 99.0	 1.5	 0.0	 0.0	 0.0	 0.0	 0.0	 0.0	 0.0	 0.0	 0.0	 0.0	 0.0;
	20432	 49.7	 0.0	 43.5	 -43.5	 1.0	 100.0	 1	 98.7	 0.7	 0.0	 0.0	 0.0	 0.0	 0.0	 0.0	 0.0	 0.0	 0.0	 0.0	 0.0;
	20433	 52.3	 0.0	 0.0	 0.0	 1.0	 100.0	 1	 94.6	 10.0	 0.0	 0.0	 0.0	 0.0	 0.0	 0.0	 0.0	 0.0	 0.0	 0.0	 94.6;
	20434	 49.5	 0.0	 0.0	 0.0	 1.0	 100.0	 1	 90.0	 9.0	 0.0	 0.0	 0.0	 0.0	 0.0	 0.0	 0.0	 0.0	 0.0	 0.0	 90.0;
	20435	 17.5	 0.0	 9.9	 -9.9	 1.0	 100.0	 1	 30.0	 5.0	 0.0	 0.0	 0.0	 0.0	 0.0	 0.0	 0.0	 0.0	 0.0	 0.0	 30.0;
	20435	 8.635	 1.3	 7.53	 -4.93	 1.0	 100.0	 1	 14.8	 2.47	 0.0	 0.0	 0.0	 0.0	 0.0	 0.0	 0.0	 0.0	 0.0	 0.0	 14.8;
	20435	 8.635	 1.3	 7.53	 -4.93	 1.0	 100.0	 1	 14.8	 2.47	 0.0	 0.0	 0.0	 0.0	 0.0	 0.0	 0.0	 0.0	 0.0	 0.0	 14.8;
	20435	 8.635	 1.3	 7.53	 -4.93	 1.0	 100.0	 1	 14.8	 2.47	 0.0	 0.0	 0.0	 0.0	 0.0	 0.0	 0.0	 0.0	 0.0	 0.0	 14.8;
	20435	 8.635	 1.3	 7.53	 -4.93	 1.0	 100.0	 1	 14.8	 2.47	 0.0	 0.0	 0.0	 0.0	 0.0	 0.0	 0.0	 0.0	 0.0	 0.0	 14.8;
	20435	 8.635	 1.3	 7.53	 -4.93	 1.0	 100.0	 1	 14.8	 2.47	 0.0	 0.0	 0.0	 0.0	 0.0	 0.0	 0.0	 0.0	 0.0	 0.0	 14.8;
	20435	 8.635	 1.3	 7.53	 -4.93	 1.0	 100.0	 1	 14.8	 2.47	 0.0	 0.0	 0.0	 0.0	 0.0	 0.0	 0.0	 0.0	 0.0	 0.0	 14.8;
	20436	 68.25	 12.4	 53.6	 -28.8	 1.0	 100.0	 1	 86.5	 50.0	 0.0	 0.0	 0.0	 0.0	 0.0	 0.0	 0.0	 0.0	 0.0	 0.0	 86.5;
	20436	 68.25	 12.4	 53.6	 -28.8	 1.0	 100.0	 1	 86.5	 50.0	 0.0	 0.0	 0.0	 0.0	 0.0	 0.0	 0.0	 0.0	 0.0	 0.0	 86.5;
	20436	 68.25	 12.4	 53.6	 -28.8	 1.0	 100.0	 1	 86.5	 50.0	 0.0	 0.0	 0.0	 0.0	 0.0	 0.0	 0.0	 0.0	 0.0	 0.0	 86.5;
	20436	 68.25	 12.4	 53.6	 -28.8	 1.0	 100.0	 1	 86.5	 50.0	 0.0	 0.0	 0.0	 0.0	 0.0	 0.0	 0.0	 0.0	 0.0	 0.0	 86.5;
	20436	 68.25	 12.4	 53.6	 -28.8	 1.0	 100.0	 1	 86.5	 50.0	 0.0	 0.0	 0.0	 0.0	 0.0	 0.0	 0.0	 0.0	 0.0	 0.0	 86.5;
	20436	 68.25	 12.4	 53.6	 -28.8	 1.0	 100.0	 1	 86.5	 50.0	 0.0	 0.0	 0.0	 0.0	 0.0	 0.0	 0.0	 0.0	 0.0	 0.0	 86.5;
	20436	 68.25	 12.4	 53.6	 -28.8	 1.0	 100.0	 1	 86.5	 50.0	 0.0	 0.0	 0.0	 0.0	 0.0	 0.0	 0.0	 0.0	 0.0	 0.0	 86.5;
	20436	 68.25	 12.4	 53.6	 -28.8	 1.0	 100.0	 1	 86.5	 50.0	 0.0	 0.0	 0.0	 0.0	 0.0	 0.0	 0.0	 0.0	 0.0	 0.0	 86.5;
	20437	 65.0	 12.2	 52.7	 -28.3	 1.0	 100.0	 1	 85.0	 45.0	 0.0	 0.0	 0.0	 0.0	 0.0	 0.0	 0.0	 0.0	 0.0	 0.0	 85.0;
	20437	 65.0	 12.2	 52.7	 -28.3	 1.0	 100.0	 1	 85.0	 45.0	 0.0	 0.0	 0.0	 0.0	 0.0	 0.0	 0.0	 0.0	 0.0	 0.0	 85.0;
	20437	 65.0	 12.2	 52.7	 -28.3	 1.0	 100.0	 1	 85.0	 45.0	 0.0	 0.0	 0.0	 0.0	 0.0	 0.0	 0.0	 0.0	 0.0	 0.0	 85.0;
	20437	 65.0	 12.2	 52.7	 -28.3	 1.0	 100.0	 1	 85.0	 45.0	 0.0	 0.0	 0.0	 0.0	 0.0	 0.0	 0.0	 0.0	 0.0	 0.0	 85.0;
	20438	 43.5	 9.6	 41.5	 -22.3	 1.0	 100.0	 1	 67.0	 20.0	 0.0	 0.0	 0.0	 0.0	 0.0	 0.0	 0.0	 0.0	 0.0	 0.0	 67.0;
	20438	 43.5	 9.6	 41.5	 -22.3	 1.0	 100.0	 1	 67.0	 20.0	 0.0	 0.0	 0.0	 0.0	 0.0	 0.0	 0.0	 0.0	 0.0	 0.0	 67.0;
	20438	 43.5	 9.6	 41.5	 -22.3	 1.0	 100.0	 1	 67.0	 20.0	 0.0	 0.0	 0.0	 0.0	 0.0	 0.0	 0.0	 0.0	 0.0	 0.0	 67.0;
	20438	 43.5	 9.6	 41.5	 -22.3	 1.0	 100.0	 1	 67.0	 20.0	 0.0	 0.0	 0.0	 0.0	 0.0	 0.0	 0.0	 0.0	 0.0	 0.0	 67.0;
	20438	 43.5	 9.6	 41.5	 -22.3	 1.0	 100.0	 1	 67.0	 20.0	 0.0	 0.0	 0.0	 0.0	 0.0	 0.0	 0.0	 0.0	 0.0	 0.0	 67.0;
	20438	 43.5	 9.6	 41.5	 -22.3	 1.0	 100.0	 1	 67.0	 20.0	 0.0	 0.0	 0.0	 0.0	 0.0	 0.0	 0.0	 0.0	 0.0	 0.0	 67.0;
	20439	 44.0	 10.0	 40.3	 -20.3	 1.0	 100.0	 1	 61.0	 27.0	 0.0	 0.0	 0.0	 0.0	 0.0	 0.0	 0.0	 0.0	 0.0	 0.0	 61.0;
	20440	 36.9	 10.4	 37.5	 -16.7	 1.0	 100.0	 1	 50.0	 23.8	 0.0	 0.0	 0.0	 0.0	 0.0	 0.0	 0.0	 0.0	 0.0	 0.0	 50.0;
	20440	 36.9	 10.4	 37.5	 -16.7	 1.0	 100.0	 1	 50.0	 23.8	 0.0	 0.0	 0.0	 0.0	 0.0	 0.0	 0.0	 0.0	 0.0	 0.0	 50.0;
	20440	 45.02	 12.75	 45.8	 -20.3	 1.0	 100.0	 1	 61.0	 29.04	 0.0	 0.0	 0.0	 0.0	 0.0	 0.0	 0.0	 0.0	 0.0	 0.0	 61.0;
	20440	 45.02	 12.75	 45.8	 -20.3	 1.0	 100.0	 1	 61.0	 29.04	 0.0	 0.0	 0.0	 0.0	 0.0	 0.0	 0.0	 0.0	 0.0	 0.0	 61.0;
	20440	 45.02	 12.75	 45.8	 -20.3	 1.0	 100.0	 1	 61.0	 29.04	 0.0	 0.0	 0.0	 0.0	 0.0	 0.0	 0.0	 0.0	 0.0	 0.0	 61.0;
	20442	 34.5	 8.45	 36.6	 -19.7	 1.0	 100.0	 1	 59.0	 10.0	 0.0	 0.0	 0.0	 0.0	 0.0	 0.0	 0.0	 0.0	 0.0	 0.0	 59.0;
	20442	 34.5	 8.45	 36.6	 -19.7	 1.0	 100.0	 1	 59.0	 10.0	 0.0	 0.0	 0.0	 0.0	 0.0	 0.0	 0.0	 0.0	 0.0	 0.0	 59.0;
	20442	 34.5	 8.45	 36.6	 -19.7	 1.0	 100.0	 1	 59.0	 10.0	 0.0	 0.0	 0.0	 0.0	 0.0	 0.0	 0.0	 0.0	 0.0	 0.0	 59.0;
	20442	 34.5	 8.45	 36.6	 -19.7	 1.0	 100.0	 1	 59.0	 10.0	 0.0	 0.0	 0.0	 0.0	 0.0	 0.0	 0.0	 0.0	 0.0	 0.0	 59.0;
	20444	 30.5	 0.0	 16.8	 -16.8	 1.0	 100.0	 1	 51.0	 10.0	 0.0	 0.0	 0.0	 0.0	 0.0	 0.0	 0.0	 0.0	 0.0	 0.0	 51.0;
	20444	 36.6	 0.0	 20.8	 -20.8	 1.0	 100.0	 1	 63.2	 10.0	 0.0	 0.0	 0.0	 0.0	 0.0	 0.0	 0.0	 0.0	 0.0	 0.0	 63.2;
	20444	 32.0	 0.0	 20.4	 -20.4	 1.0	 100.0	 1	 62.0	 2.0	 0.0	 0.0	 0.0	 0.0	 0.0	 0.0	 0.0	 0.0	 0.0	 0.0	 62.0;
	20445	 42.0	 7.15	 31.0	 -16.7	 1.0	 100.0	 1	 50.0	 34.0	 0.0	 0.0	 0.0	 0.0	 0.0	 0.0	 0.0	 0.0	 0.0	 0.0	 50.0;
	20445	 83.8	 16.25	 70.4	 -37.9	 1.0	 100.0	 1	 113.6	 54.0	 0.0	 0.0	 0.0	 0.0	 0.0	 0.0	 0.0	 0.0	 0.0	 0.0	 113.6;
	20445	 50.5	 9.9	 42.8	 -23.0	 1.0	 100.0	 1	 69.0	 32.0	 0.0	 0.0	 0.0	 0.0	 0.0	 0.0	 0.0	 0.0	 0.0	 0.0	 69.0;
	20445	 50.5	 9.9	 42.8	 -23.0	 1.0	 100.0	 1	 69.0	 32.0	 0.0	 0.0	 0.0	 0.0	 0.0	 0.0	 0.0	 0.0	 0.0	 0.0	 69.0;
	20445	 31.28	 6.6	 28.5	 -15.3	 1.0	 100.0	 1	 46.0	 16.56	 0.0	 0.0	 0.0	 0.0	 0.0	 0.0	 0.0	 0.0	 0.0	 0.0	 46.0;
	20445	 31.28	 6.6	 28.5	 -15.3	 1.0	 100.0	 1	 46.0	 16.56	 0.0	 0.0	 0.0	 0.0	 0.0	 0.0	 0.0	 0.0	 0.0	 0.0	 46.0;
	20446	 21.9	 3.15	 20.2	 -13.9	 1.0	 100.0	 1	 41.8	 2.0	 0.0	 0.0	 0.0	 0.0	 0.0	 0.0	 0.0	 0.0	 0.0	 0.0	 41.8;
	20446	 21.9	 3.15	 20.2	 -13.9	 1.0	 100.0	 1	 41.8	 2.0	 0.0	 0.0	 0.0	 0.0	 0.0	 0.0	 0.0	 0.0	 0.0	 0.0	 41.8;
	20448	 29.2	 5.95	 25.7	 -13.8	 1.0	 100.0	 1	 41.4	 17.0	 0.0	 0.0	 0.0	 0.0	 0.0	 0.0	 0.0	 0.0	 0.0	 0.0	 41.4;
	20448	 29.2	 5.95	 25.7	 -13.8	 1.0	 100.0	 1	 41.4	 17.0	 0.0	 0.0	 0.0	 0.0	 0.0	 0.0	 0.0	 0.0	 0.0	 0.0	 41.4;
	20448	 60.95	 12.3	 53.2	 -28.6	 1.0	 100.0	 1	 85.9	 36.0	 0.0	 0.0	 0.0	 0.0	 0.0	 0.0	 0.0	 0.0	 0.0	 0.0	 85.9;
	20449	 27.135	 8.4	 30.2	 -13.4	 1.0	 100.0	 1	 40.2	 14.07	 0.0	 0.0	 0.0	 0.0	 0.0	 0.0	 0.0	 0.0	 0.0	 0.0	 40.2;
	20449	 46.575	 14.4	 51.8	 -23.0	 1.0	 100.0	 1	 69.0	 24.15	 0.0	 0.0	 0.0	 0.0	 0.0	 0.0	 0.0	 0.0	 0.0	 0.0	 69.0;
	20449	 23.8	 7.3	 26.3	 -11.7	 1.0	 100.0	 1	 35.0	 12.6	 0.0	 0.0	 0.0	 0.0	 0.0	 0.0	 0.0	 0.0	 0.0	 0.0	 35.0;
	20450	 44.45	 8.7	 37.7	 -20.3	 1.0	 100.0	 1	 60.9	 28.0	 0.0	 0.0	 0.0	 0.0	 0.0	 0.0	 0.0	 0.0	 0.0	 0.0	 60.9;
	20450	 23.0	 4.75	 20.5	 -11.0	 1.0	 100.0	 1	 33.0	 13.0	 0.0	 0.0	 0.0	 0.0	 0.0	 0.0	 0.0	 0.0	 0.0	 0.0	 33.0;
	20451	 17.9	 6.4	 23.1	 -10.3	 1.0	 100.0	 1	 30.8	 5.0	 0.0	 0.0	 0.0	 0.0	 0.0	 0.0	 0.0	 0.0	 0.0	 0.0	 30.8;
	20452	 17.25	 3.6	 15.5	 -8.3	 1.0	 100.0	 1	 25.0	 9.5	 0.0	 0.0	 0.0	 0.0	 0.0	 0.0	 0.0	 0.0	 0.0	 0.0	 25.0;
	20453	 6.775	 1.725	 7.45	 -4.0	 1.0	 100.0	 1	 12.05	 1.5	 0.0	 0.0	 0.0	 0.0	 0.0	 0.0	 0.0	 0.0	 0.0	 0.0	 12.05;
	20453	 6.775	 1.725	 7.45	 -4.0	 1.0	 100.0	 1	 12.05	 1.5	 0.0	 0.0	 0.0	 0.0	 0.0	 0.0	 0.0	 0.0	 0.0	 0.0	 12.05;
	20454	 3.3	 0.0	 0.0	 0.0	 1.0	 100.0	 1	 5.85	 0.75	 0.0	 0.0	 0.0	 0.0	 0.0	 0.0	 0.0	 0.0	 0.0	 0.0	 5.85;
	20454	 3.3	 0.0	 0.0	 0.0	 1.0	 100.0	 1	 5.85	 0.75	 0.0	 0.0	 0.0	 0.0	 0.0	 0.0	 0.0	 0.0	 0.0	 0.0	 5.85;
	20454	 3.3	 0.0	 0.0	 0.0	 1.0	 100.0	 1	 5.85	 0.75	 0.0	 0.0	 0.0	 0.0	 0.0	 0.0	 0.0	 0.0	 0.0	 0.0	 5.85;
	20454	 3.3	 0.0	 0.0	 0.0	 1.0	 100.0	 1	 5.85	 0.75	 0.0	 0.0	 0.0	 0.0	 0.0	 0.0	 0.0	 0.0	 0.0	 0.0	 5.85;
	20455	 6.55	 1.6	 6.9	 -3.7	 1.0	 100.0	 1	 11.1	 2.0	 0.0	 0.0	 0.0	 0.0	 0.0	 0.0	 0.0	 0.0	 0.0	 0.0	 11.1;
	20455	 6.55	 1.6	 6.9	 -3.7	 1.0	 100.0	 1	 11.1	 2.0	 0.0	 0.0	 0.0	 0.0	 0.0	 0.0	 0.0	 0.0	 0.0	 0.0	 11.1;
	20457	 11.3	 4.5	 16.2	 -7.2	 1.0	 100.0	 1	 21.6	 1.0	 0.0	 0.0	 0.0	 0.0	 0.0	 0.0	 0.0	 0.0	 0.0	 0.0	 21.6;
	20457	 11.3	 4.5	 16.2	 -7.2	 1.0	 100.0	 1	 21.6	 1.0	 0.0	 0.0	 0.0	 0.0	 0.0	 0.0	 0.0	 0.0	 0.0	 0.0	 21.6;
	20457	 11.3	 4.5	 16.2	 -7.2	 1.0	 100.0	 1	 21.6	 1.0	 0.0	 0.0	 0.0	 0.0	 0.0	 0.0	 0.0	 0.0	 0.0	 0.0	 21.6;
	20458	 459.1	 79.515	 364.43	 -205.4	 1.0	 100.0	 1	 616.2	 302.0	 0.0	 0.0	 0.0	 0.0	 0.0	 0.0	 0.0	 0.0	 0.0	 0.0	 616.2;
	20458	 78.55	 12.5	 54.0	 -29.0	 1.0	 100.0	 1	 87.1	 70.0	 0.0	 0.0	 0.0	 0.0	 0.0	 0.0	 0.0	 0.0	 0.0	 0.0	 87.1;
	20458	 78.55	 12.5	 54.0	 -29.0	 1.0	 100.0	 1	 87.1	 70.0	 0.0	 0.0	 0.0	 0.0	 0.0	 0.0	 0.0	 0.0	 0.0	 0.0	 87.1;
	20458	 78.55	 12.5	 54.0	 -29.0	 1.0	 100.0	 1	 87.1	 70.0	 0.0	 0.0	 0.0	 0.0	 0.0	 0.0	 0.0	 0.0	 0.0	 0.0	 87.1;
	20458	 78.55	 12.5	 54.0	 -29.0	 1.0	 100.0	 1	 87.1	 70.0	 0.0	 0.0	 0.0	 0.0	 0.0	 0.0	 0.0	 0.0	 0.0	 0.0	 87.1;
	20458	 78.55	 12.5	 54.0	 -29.0	 1.0	 100.0	 1	 87.1	 70.0	 0.0	 0.0	 0.0	 0.0	 0.0	 0.0	 0.0	 0.0	 0.0	 0.0	 87.1;
	20458	 78.55	 12.5	 54.0	 -29.0	 1.0	 100.0	 1	 87.1	 70.0	 0.0	 0.0	 0.0	 0.0	 0.0	 0.0	 0.0	 0.0	 0.0	 0.0	 87.1;
	20458	 78.55	 12.5	 54.0	 -29.0	 1.0	 100.0	 1	 87.1	 70.0	 0.0	 0.0	 0.0	 0.0	 0.0	 0.0	 0.0	 0.0	 0.0	 0.0	 87.1;
	20458	 78.55	 12.5	 54.0	 -29.0	 1.0	 100.0	 1	 87.1	 70.0	 0.0	 0.0	 0.0	 0.0	 0.0	 0.0	 0.0	 0.0	 0.0	 0.0	 87.1;
	20458	 459.1	 79.515	 364.43	 -205.4	 1.0	 100.0	 1	 616.2	 302.0	 0.0	 0.0	 0.0	 0.0	 0.0	 0.0	 0.0	 0.0	 0.0	 0.0	 616.2;
	20458	 459.1	 79.515	 364.43	 -205.4	 1.0	 100.0	 1	 616.2	 302.0	 0.0	 0.0	 0.0	 0.0	 0.0	 0.0	 0.0	 0.0	 0.0	 0.0	 616.2;
	20458	 217.5	 30.95	 198.6	 -136.7	 1.0	 100.0	 1	 410.0	 25.0	 0.0	 0.0	 0.0	 0.0	 0.0	 0.0	 0.0	 0.0	 0.0	 0.0	 410.0;
	20458	 210.0	 54.4	 235.5	 -126.7	 1.0	 100.0	 1	 380.0	 40.0	 0.0	 0.0	 0.0	 0.0	 0.0	 0.0	 0.0	 0.0	 0.0	 0.0	 380.0;
	20458	 78.55	 12.5	 54.0	 -29.0	 1.0	 100.0	 1	 87.1	 70.0	 0.0	 0.0	 0.0	 0.0	 0.0	 0.0	 0.0	 0.0	 0.0	 0.0	 87.1;
	20458	 78.55	 12.5	 54.0	 -29.0	 1.0	 100.0	 1	 87.1	 70.0	 0.0	 0.0	 0.0	 0.0	 0.0	 0.0	 0.0	 0.0	 0.0	 0.0	 87.1;
	20458	 78.55	 12.5	 54.0	 -29.0	 1.0	 100.0	 1	 87.1	 70.0	 0.0	 0.0	 0.0	 0.0	 0.0	 0.0	 0.0	 0.0	 0.0	 0.0	 87.1;
	20458	 78.55	 12.5	 54.0	 -29.0	 1.0	 100.0	 1	 87.1	 70.0	 0.0	 0.0	 0.0	 0.0	 0.0	 0.0	 0.0	 0.0	 0.0	 0.0	 87.1;
	20459	 1093.15	 85.55	 548.9	 -377.8	 1.0	 100.0	 1	 1133.3	 1053.0	 0.0	 0.0	 0.0	 0.0	 0.0	 0.0	 0.0	 0.0	 0.0	 0.0	 0.0;
	20459	 1079.0	 86.95	 557.9	 -384.0	 1.0	 100.0	 1	 1152.0	 1006.0	 0.0	 0.0	 0.0	 0.0	 0.0	 0.0	 0.0	 0.0	 0.0	 0.0	 0.0;
	20460	 405.9	 169.15	 608.9	 -270.6	 1.0	 100.0	 1	 811.8	 0.0	 0.0	 0.0	 0.0	 0.0	 0.0	 0.0	 0.0	 0.0	 0.0	 0.0	 0.0;
	20461	 426.25	 52.65	 337.8	 -232.5	 1.0	 100.0	 1	 697.5	 155.0	 0.0	 0.0	 0.0	 0.0	 0.0	 0.0	 0.0	 0.0	 0.0	 0.0	 697.5;
	20461	 426.25	 52.65	 337.8	 -232.5	 1.0	 100.0	 1	 697.5	 155.0	 0.0	 0.0	 0.0	 0.0	 0.0	 0.0	 0.0	 0.0	 0.0	 0.0	 697.5;
	20461	 48.65	 12.25	 52.9	 -28.4	 1.0	 100.0	 1	 85.3	 12.0	 0.0	 0.0	 0.0	 0.0	 0.0	 0.0	 0.0	 0.0	 0.0	 0.0	 85.3;
	20461	 48.65	 12.25	 52.9	 -28.4	 1.0	 100.0	 1	 85.3	 12.0	 0.0	 0.0	 0.0	 0.0	 0.0	 0.0	 0.0	 0.0	 0.0	 0.0	 85.3;
	20461	 48.65	 12.25	 52.9	 -28.4	 1.0	 100.0	 1	 85.3	 12.0	 0.0	 0.0	 0.0	 0.0	 0.0	 0.0	 0.0	 0.0	 0.0	 0.0	 85.3;
	20462	 284.9	 47.25	 204.4	 -109.9	 1.0	 100.0	 1	 329.8	 240.0	 0.0	 0.0	 0.0	 0.0	 0.0	 0.0	 0.0	 0.0	 0.0	 0.0	 329.8;
	20462	 284.9	 47.25	 204.4	 -109.9	 1.0	 100.0	 1	 329.8	 240.0	 0.0	 0.0	 0.0	 0.0	 0.0	 0.0	 0.0	 0.0	 0.0	 0.0	 329.8;
...
];

%% generator cost data
%	2	startup	shutdown	n	c(n-1)	...	c0
mpc.gencost = [
	2	 0.0	 0.0	 3	   0.001000	  12.513000	 2114.900000;
	2	 0.0	 0.0	 3	   0.001000	  12.513000	 2114.900000;
	2	 0.0	 0.0	 3	   0.002000	  13.037000	 1047.400000;
	2	 0.0	 0.0	 3	   0.002000	  13.037000	 1047.400000;
	2	 0.0	 0.0	 3	   0.002000	  13.037000	 1047.400000;
	2	 0.0	 0.0	 3	   0.002000	  13.037000	 1047.400000;
	2	 0.0	 0.0	 3	   0.002000	  13.037000	 1047.400000;
	2	 0.0	 0.0	 3	   0.034000	  24.825000	 226.450000;
	2	 0.0	 0.0	 3	   0.034000	  24.825000	 226.450000;
	2	 0.0	 0.0	 3	   0.002000	  13.277000	 813.680000;
	2	 0.0	 0.0	 3	   0.002000	  13.279000	 815.220000;
	2	 0.0	 0.0	 3	   0.002000	  13.279000	 815.220000;
	2	 0.0	 0.0	 3	   0.007000	  16.922000	 371.490000;
	2	 0.0	 0.0	 3	   0.002000	  13.269000	 803.200000;
	2	 0.0	 0.0	 3	   0.002000	  13.269000	 803.200000;
	2	 0.0	 0.0	 3	   0.002000	  13.035000	 1052.200000;
	2	 0.0	 0.0	 3	   0.002000	  13.035000	 1052.200000;
	2	 0.0	 0.0	 3	   0.005000	  13.538000	 463.610000;
	2	 0.0	 0.0	 3	   0.002000	  13.256000	 781.990000;
	2	 0.0	 0.0	 3	   0.007000	  16.922000	 371.490000;
	2	 0.0	 0.0	 3	   0.007000	  16.922000	 371.490000;
	2	 0.0	 0.0	 3	   0.005000	  13.588000	 445.010000;
	2	 0.0	 0.0	 3	   0.005000	  13.588000	 445.010000;
	2	 0.0	 0.0	 3	   0.006000	  13.811000	 385.350000;
	2	 0.0	 0.0	 3	   0.006000	  13.811000	 385.350000;
	2	 0.0	 0.0	 3	   0.006000	  13.811000	 385.350000;
	2	 0.0	 0.0	 3	   0.006000	  13.811000	 385.350000;
	2	 0.0	 0.0	 3	   0.006000	  13.811000	 385.350000;
	2	 0.0	 0.0	 3	   0.006000	  13.811000	 385.350000;
	2	 0.0	 0.0	 3	   0.009000	  18.772000	 588.040000;
	2	 0.0	 0.0	 3	   0.009000	  18.772000	 588.040000;
	2	 0.0	 0.0	 3	   0.009000	  18.772000	 588.040000;
	2	 0.0	 0.0	 3	   0.000000	   0.000000	   0.000000;
	2	 0.0	 0.0	 3	   0.007000	  13.961000	 355.300000;
	2	 0.0	 0.0	 3	   0.026000	  13.537000	 318.860000;
	2	 0.0	 0.0	 3	   0.003000	  13.138000	 631.770000;
	2	 0.0	 0.0	 3	   0.032000	   9.547000	 2249.860000;
	2	 0.0	 0.0	 3	   0.032000	   9.547000	 2249.860000;
	2	 0.0	 0.0	 3	   0.009000	  18.772000	 588.040000;
	2	 0.0	 0.0	 3	   0.032000	   9.547000	 2249.860000;
	2	 0.0	 0.0	 3	   0.032000	   9.547000	 2249.860000;
	2	 0.0	 0.0	 3	   0.032000	   9.547000	 2249.860000;
	2	 0.0	 0.0	 3	   0.032000	   9.547000	 2249.860000;
	2	 0.0	 0.0	 3	   0.026000	  11.398000	 993.750000;
	2	 0.0	 0.0	 3	   0.026000	  11.398000	 993.750000;
	2	 0.0	 0.0	 3	   0.014000	  14.920000	 188.180000;
	2	 0.0	 0.0	 3	   0.046000	  77.147000	 1586.400000;
	2	 0.0	 0.0	 3	   0.046000	  77.147000	 1586.400000;
	2	 0.0	 0.0	 3	   0.003000	  13.196000	 696.710000;
	2	 0.0	 0.0	 3	   0.014000	  14.920000	 188.180000;
	2	 0.0	 0.0	 3	   0.007000	  16.922000	 371.490000;
	2	 0.0	 0.0	 3	   0.007000	  16.922000	 371.490000;
	2	 0.0	 0.0	 3	   0.005000	  60.757000	 2894.550000;
	2	 0.0	 0.0	 3	   0.046000	  77.147000	 1586.400000;
	2	 0.0	 0.0	 3	   0.046000	  77.147000	 1586.400000;
	2	 0.0	 0.0	 3	   0.046000	  77.147000	 1586.400000;
	2	 0.0	 0.0	 3	   0.046000	  77.147000	 1586.400000;
	2	 0.0	 0.0	 3	   0.008000	  14.135000	 307.360000;
	2	 0.0	 0.0	 3	   0.008000	  14.135000	 307.360000;
	2	 0.0	 0.0	 3	   0.008000	  14.135000	 307.360000;
	2	 0.0	 0.0	 3	   0.004000	  13.397000	 512.160000;
	2	 0.0	 0.0	 3	   0.013000	  22.680000	 468.140000;
	2	 0.0	 0.0	 3	   0.009000	  14.342000	 276.670000;
	2	 0.0	 0.0	 3	   0.009000	  14.342000	 276.670000;
	2	 0.0	 0.0	 3	   0.006000	  13.813000	 382.200000;
	2	 0.0	 0.0	 3	   0.002000	  13.329000	 887.350000;
	2	 0.0	 0.0	 3	   0.047000	  25.435000	 175.850000;
	2	 0.0	 0.0	 3	   0.014000	  22.845000	 442.950000;
	2	 0.0	 0.0	 3	   0.014000	  22.845000	 442.950000;
	2	 0.0	 0.0	 3	   0.014000	  22.845000	 442.950000;
	2	 0.0	 0.0	 3	   0.014000	  22.845000	 442.950000;
	2	 0.0	 0.0	 3	   0.014000	  22.845000	 442.950000;
	2	 0.0	 0.0	 3	   0.063000	  25.545000	 130.870000;
	2	 0.0	 0.0	 3	   0.074000	  25.545000	 111.240000;
	2	 0.0	 0.0	 3	   0.009000	  14.376000	 271.890000;
	2	 0.0	 0.0	 3	   0.009000	  14.376000	 271.890000;
	2	 0.0	 0.0	 3	   0.009000	  14.376000	 271.890000;
	2	 0.0	 0.0	 3	   0.009000	  14.376000	 271.890000;
	2	 0.0	 0.0	 3	   0.007000	  16.922000	 371.490000;
	2	 0.0	 0.0	 3	   0.007000	  16.922000	 371.490000;
	2	 0.0	 0.0	 3	   0.016000	  23.121000	 404.830000;
	2	 0.0	 0.0	 3	   0.011000	  14.595000	 239.210000;
	2	 0.0	 0.0	 3	   0.011000	  14.594000	 242.120000;
	2	 0.0	 0.0	 3	   0.011000	  14.594000	 242.120000;
	2	 0.0	 0.0	 3	   0.007000	  16.922000	 371.490000;
	2	 0.0	 0.0	 3	   0.007000	  16.922000	 371.490000;
	2	 0.0	 0.0	 3	   0.007000	  16.922000	 371.490000;
	2	 0.0	 0.0	 3	   0.007000	  16.922000	 371.490000;
	2	 0.0	 0.0	 3	   0.011000	  14.645000	 233.210000;
	2	 0.0	 0.0	 3	   0.011000	  14.658000	 229.960000;
	2	 0.0	 0.0	 3	   0.013000	  14.813000	 208.070000;
	2	 0.0	 0.0	 3	   0.013000	  14.813000	 208.070000;
	2	 0.0	 0.0	 3	   0.013000	  14.813000	 208.070000;
	2	 0.0	 0.0	 3	   0.032000	   9.547000	 2249.860000;
	2	 0.0	 0.0	 3	   0.004000	  13.172000	 584.570000;
	2	 0.0	 0.0	 3	   0.014000	  14.886000	 195.250000;
	2	 0.0	 0.0	 3	   0.005000	  13.597000	 442.210000;
	2	 0.0	 0.0	 3	   0.000000	   0.000000	   0.000000;
	2	 0.0	 0.0	 3	   0.000000	   0.000000	   0.000000;
	2	 0.0	 0.0	 3	   0.000000	   0.000000	   0.000000;
	2	 0.0	 0.0	 3	   0.000000	   0.000000	   0.000000;
	2	 0.0	 0.0	 3	   0.000000	   0.000000	   0.000000;
	2	 0.0	 0.0	 3	   0.000000	   0.000000	   0.000000;
	2	 0.0	 0.0	 3	   0.000000	   0.000000	   0.000000;
	2	 0.0	 0.0	 3	   0.019000	  15.070000	 176.370000;
	2	 0.0	 0.0	 3	   0.026000	  24.168000	 277.160000;
	2	 0.0	 0.0	 3	   0.087000	  25.545000	  94.880000;
	2	 0.0	 0.0	 3	   0.027000	  24.223000	 271.680000;
	2	 0.0	 0.0	 3	   0.027000	  24.223000	 271.680000;
	2	 0.0	 0.0	 3	   0.027000	  24.223000	 271.680000;
	2	 0.0	 0.0	 3	   0.027000	  24.223000	 271.680000;
	2	 0.0	 0.0	 3	   0.027000	  24.223000	 271.680000;
	2	 0.0	 0.0	 3	   0.027000	  24.223000	 271.680000;
	2	 0.0	 0.0	 3	   0.007000	  16.922000	 371.490000;
	2	 0.0	 0.0	 3	   0.007000	  16.922000	 371.490000;
	2	 0.0	 0.0	 3	   0.007000	  16.922000	 371.490000;
	2	 0.0	 0.0	 3	   0.007000	  16.922000	 371.490000;
	2	 0.0	 0.0	 3	   0.007000	  16.922000	 371.490000;
	2	 0.0	 0.0	 3	   0.007000	  16.922000	 371.490000;
	2	 0.0	 0.0	 3	   0.007000	  16.922000	 371.490000;
	2	 0.0	 0.0	 3	   0.007000	  16.922000	 371.490000;
	2	 0.0	 0.0	 3	   0.007000	  16.922000	 371.490000;
	2	 0.0	 0.0	 3	   0.007000	  16.922000	 371.490000;
	2	 0.0	 0.0	 3	   0.007000	  16.922000	 371.490000;
	2	 0.0	 0.0	 3	   0.007000	  16.922000	 371.490000;
	2	 0.0	 0.0	 3	   0.026000	  13.537000	 318.860000;
	2	 0.0	 0.0	 3	   0.026000	  13.537000	 318.860000;
	2	 0.0	 0.0	 3	   0.026000	  13.537000	 318.860000;
	2	 0.0	 0.0	 3	   0.026000	  13.537000	 318.860000;
	2	 0.0	 0.0	 3	   0.026000	  13.537000	 318.860000;
	2	 0.0	 0.0	 3	   0.026000	  13.537000	 318.860000;
	2	 0.0	 0.0	 3	   0.053000	  14.879000	  51.340000;
	2	 0.0	 0.0	 3	   0.053000	  14.879000	  51.340000;
	2	 0.0	 0.0	 3	   0.053000	  14.879000	  51.340000;
	2	 0.0	 0.0	 3	   0.053000	  14.879000	  51.340000;
	2	 0.0	 0.0	 3	   0.053000	  14.879000	  51.340000;
	2	 0.0	 0.0	 3	   0.053000	  14.879000	  51.340000;
	2	 0.0	 0.0	 3	   0.026000	  13.537000	 318.860000;
	2	 0.0	 0.0	 3	   0.026000	  13.537000	 318.860000;
	2	 0.0	 0.0	 3	   0.026000	  13.537000	 318.860000;
	2	 0.0	 0.0	 3	   0.026000	  13.537000	 318.860000;
	2	 0.0	 0.0	 3	   0.051000	  25.545000	 163.590000;
	2	 0.0	 0.0	 3	   0.039000	  25.105000	 203.100000;
	2	 0.0	 0.0	 3	   0.040000	  25.160000	 199.510000;
	2	 0.0	 0.0	 3	   0.030000	  16.003000	 102.290000;
	2	 0.0	 0.0	 3	   0.013000	  14.778000	 211.580000;
	2	 0.0	 0.0	 3	   0.022000	  15.601000	 135.810000;
	2	 0.0	 0.0	 3	   0.022000	  15.601000	 135.810000;
	2	 0.0	 0.0	 3	   0.180000	  87.000000	 507.300000;
	2	 0.0	 0.0	 3	   0.180000	  87.000000	 507.300000;
	2	 0.0	 0.0	 3	   0.008000	  50.578000	 1755.230000;
	2	 0.0	 0.0	 3	   0.008000	  50.578000	 1755.230000;
	2	 0.0	 0.0	 3	   0.026000	  13.537000	 318.860000;
	2	 0.0	 0.0	 3	   0.026000	  13.537000	 318.860000;
	2	 0.0	 0.0	 3	   0.007000	  16.922000	 371.490000;
	2	 0.0	 0.0	 3	   0.036000	  16.010000	  84.870000;
	2	 0.0	 0.0	 3	   0.022000	  15.587000	 137.470000;
	2	 0.0	 0.0	 3	   0.246000	  87.000000	 372.940000;
	2	 0.0	 0.0	 3	   0.025000	  15.780000	 122.030000;
	2	 0.0	 0.0	 3	   0.045000	  16.010000	  66.830000;
	2	 0.0	 0.0	 3	   0.085000	  25.309000	 135.160000;
	2	 0.0	 0.0	 3	   0.061000	  16.010000	  51.080000;
	2	 0.0	 0.0	 3	   0.062000	  16.010000	  50.490000;
	2	 0.0	 0.0	 3	   0.062000	  16.010000	  50.490000;
	2	 0.0	 0.0	 3	   0.114000	  25.478000	  83.380000;
	2	 0.0	 0.0	 3	   0.114000	  25.478000	  83.380000;
	2	 0.0	 0.0	 3	   0.114000	  25.478000	  83.380000;
	2	 0.0	 0.0	 3	   0.114000	  25.478000	  83.380000;
	2	 0.0	 0.0	 3	   0.026000	  13.537000	 318.860000;
	2	 0.0	 0.0	 3	   0.026000	  13.537000	 318.860000;
	2	 0.0	 0.0	 3	   0.062000	  14.879000	  43.970000;
	2	 0.0	 0.0	 3	   0.062000	  14.879000	  43.970000;
	2	 0.0	 0.0	 3	   0.062000	  14.879000	  43.970000;
	2	 0.0	 0.0	 3	   0.002000	  15.698000	 5647.540000;
	2	 0.0	 0.0	 3	   0.009000	  18.772000	 588.040000;
	2	 0.0	 0.0	 3	   0.009000	  18.772000	 588.040000;
	2	 0.0	 0.0	 3	   0.009000	  18.772000	 588.040000;
	2	 0.0	 0.0	 3	   0.009000	  18.772000	 588.040000;
	2	 0.0	 0.0	 3	   0.009000	  18.772000	 588.040000;
	2	 0.0	 0.0	 3	   0.009000	  18.772000	 588.040000;
	2	 0.0	 0.0	 3	   0.009000	  18.772000	 588.040000;
	2	 0.0	 0.0	 3	   0.009000	  18.772000	 588.040000;
	2	 0.0	 0.0	 3	   0.002000	  15.698000	 5647.540000;
	2	 0.0	 0.0	 3	   0.002000	  15.698000	 5647.540000;
	2	 0.0	 0.0	 3	   0.009000	  13.659000	 2130.630000;
	2	 0.0	 0.0	 3	   0.009000	  13.659000	 2130.630000;
	2	 0.0	 0.0	 3	   0.009000	  18.772000	 588.040000;
	2	 0.0	 0.0	 3	   0.009000	  18.772000	 588.040000;
	2	 0.0	 0.0	 3	   0.009000	  18.772000	 588.040000;
	2	 0.0	 0.0	 3	   0.009000	  18.772000	 588.040000;
	2	 0.0	 0.0	 3	   0.000000	   0.000000	   0.000000;
	2	 0.0	 0.0	 3	   0.000000	   0.000000	   0.000000;
	2	 0.0	 0.0	 3	   0.000000	   0.000000	   0.000000;
	2	 0.0	 0.0	 3	   0.002000	  12.935000	 1094.500000;
	2	 0.0	 0.0	 3	   0.002000	  12.935000	 1094.500000;
	2	 0.0	 0.0	 3	   0.007000	  16.922000	 371.490000;
	2	 0.0	 0.0	 3	   0.007000	  16.922000	 371.490000;
	2	 0.0	 0.0	 3	   0.007000	  16.922000	 371.490000;
	2	 0.0	 0.0	 3	   0.009000	  14.879000	 303.560000;
	2	 0.0	 0.0	 3	   0.009000	  14.879000	 303.560000;
...
];

%% storage data
%	bus	energy	energy_rating	charge_rating	discharge_rating	thermal_rating	qmin	qmax	r	x	standby_loss	status
mpc.storage = [
	82363	0.0	0.0	1.00	822.6150	411.3075	296.1414	0.9	0.85	1000	-1000	1000	0.1	0.01	0	0	1;
	82365	0.0	0.0	1.00	543.1050	271.5525	195.5178	0.9	0.85	1000	-1000	1000	0.1	0.01	0	0	1;
	83977	0.0	0.0	1.00	362.6700	181.3350	130.5612	0.9	0.85	1000	-1000	1000	0.1	0.01	0	0	1;
	82348	0.0	0.0	1.00	323.0550	161.5275	116.2998	0.9	0.85	1000	-1000	1000	0.1	0.01	0	0	1;
	82413	0.0	0.0	1.00	288.2850	144.1425	103.7826	0.9	0.85	1000	-1000	1000	0.1	0.01	0	0	1;
	83096	0.0	0.0	1.00	281.2200	140.6100	101.2392	0.9	0.85	1000	-1000	1000	0.1	0.01	0	0	1;
	83509	0.0	0.0	1.00	279.3900	139.6950	100.5804	0.9	0.85	1000	-1000	1000	0.1	0.01	0	0	1;
	82454	0.0	0.0	1.00	264.0450	132.0225	95.0562	0.9	0.85	1000	-1000	1000	0.1	0.01	0	0	1;
	82199	0.0	0.0	1.00	257.2950	128.6475	92.6262	0.9	0.85	1000	-1000	1000	0.1	0.01	0	0	1;
	82458	0.0	0.0	1.00	249.7200	124.8600	89.8992	0.9	0.85	1000	-1000	1000	0.1	0.01	0	0	1;
	21219	0.0	0.0	1.00	243.9450	121.9725	87.8202	0.9	0.85	1000	-1000	1000	0.1	0.01	0	0	1;
	83808	0.0	0.0	1.00	230.2800	115.1400	82.9008	0.9	0.85	1000	-1000	1000	0.1	0.01	0	0	1;
	84067	0.0	0.0	1.00	227.5350	113.7675	81.9126	0.9	0.85	1000	-1000	1000	0.1	0.01	0	0	1;
	82194	0.0	0.0	1.00	224.5500	112.2750	80.8380	0.9	0.85	1000	-1000	1000	0.1	0.01	0	0	1;
	21752	0.0	0.0	1.00	223.0350	111.5175	80.2926	0.9	0.85	1000	-1000	1000	0.1	0.01	0	0	1;
	26795	0.0	0.0	1.00	215.0550	107.5275	77.4198	0.9	0.85	1000	-1000	1000	0.1	0.01	0	0	1;
	82132	0.0	0.0	1.00	214.7100	107.3550	77.2956	0.9	0.85	1000	-1000	1000	0.1	0.01	0	0	1;
	82583	0.0	0.0	1.00	210.3450	105.1725	75.7242	0.9	0.85	1000	-1000	1000	0.1	0.01	0	0	1;
	83925	0.0	0.0	1.00	202.3350	101.1675	72.8406	0.9	0.85	1000	-1000	1000	0.1	0.01	0	0	1;
	83576	0.0	0.0	1.00	201.9750	100.9875	72.7110	0.9	0.85	1000	-1000	1000	0.1	0.01	0	0	1;
	84464	0.0	0.0	1.00	198.6300	99.3150	71.5068	0.9	0.85	1000	-1000	1000	0.1	0.01	0	0	1;
	83527	0.0	0.0	1.00	197.5500	98.7750	71.1180	0.9	0.85	1000	-1000	1000	0.1	0.01	0	0	1;
	83654	0.0	0.0	1.00	197.0550	98.5275	70.9398	0.9	0.85	1000	-1000	1000	0.1	0.01	0	0	1;
	84537	0.0	0.0	1.00	193.7850	96.8925	69.7626	0.9	0.85	1000	-1000	1000	0.1	0.01	0	0	1;
	82512	0.0	0.0	1.00	182.2950	91.1475	65.6262	0.9	0.85	1000	-1000	1000	0.1	0.01	0	0	1;
	84384	0.0	0.0	1.00	182.0250	91.0125	65.5290	0.9	0.85	1000	-1000	1000	0.1	0.01	0	0	1;
	83994	0.0	0.0	1.00	180.7050	90.3525	65.0538	0.9	0.85	1000	-1000	1000	0.1	0.01	0	0	1;
	21611	0.0	0.0	1.00	175.7100	87.8550	63.2556	0.9	0.85	1000	-1000	1000	0.1	0.01	0	0	1;
	82379	0.0	0.0	1.00	175.4850	87.7425	63.1746	0.9	0.85	1000	-1000	1000	0.1	0.01	0	0	1;
	83792	0.0	0.0	1.00	172.2600	86.1300	62.0136	0.9	0.85	1000	-1000	1000	0.1	0.01	0	0	1;
	82114	0.0	0.0	1.00	169.9950	84.9975	61.1982	0.9	0.85	1000	-1000	1000	0.1	0.01	0	0	1;
	82202	0.0	0.0	1.00	169.7850	84.8925	61.1226	0.9	0.85	1000	-1000	1000	0.1	0.01	0	0	1;
	82140	0.0	0.0	1.00	169.1100	84.5550	60.8796	0.9	0.85	1000	-1000	1000	0.1	0.01	0	0	1;
	82066	0.0	0.0	1.00	167.7900	83.8950	60.4044	0.9	0.85	1000	-1000	1000	0.1	0.01	0	0	1;
	21475	0.0	0.0	1.00	165.0000	82.5000	59.4000	0.9	0.85	1000	-1000	1000	0.1	0.01	0	0	1;
	84385	0.0	0.0	1.00	162.9150	81.4575	58.6494	0.9	0.85	1000	-1000	1000	0.1	0.01	0	0	1;
	83743	0.0	0.0	1.00	161.5050	80.7525	58.1418	0.9	0.85	1000	-1000	1000	0.1	0.01	0	0	1;
	26995	0.0	0.0	1.00	160.9950	80.4975	57.9582	0.9	0.85	1000	-1000	1000	0.1	0.01	0	0	1;
	82189	0.0	0.0	1.00	159.8850	79.9425	57.5586	0.9	0.85	1000	-1000	1000	0.1	0.01	0	0	1;
	20872	0.0	0.0	1.00	159.1800	79.5900	57.3048	0.9	0.85	1000	-1000	1000	0.1	0.01	0	0	1;
	21170	0.0	0.0	1.00	158.4900	79.2450	57.0564	0.9	0.85	1000	-1000	1000	0.1	0.01	0	0	1;
	82708	0.0	0.0	1.00	149.7450	74.8725	53.9082	0.9	0.85	1000	-1000	1000	0.1	0.01	0	0	1;
	82206	0.0	0.0	1.00	145.5150	72.7575	52.3854	0.9	0.85	1000	-1000	1000	0.1	0.01	0	0	1;
	83413	0.0	0.0	1.00	145.5000	72.7500	52.3800	0.9	0.85	1000	-1000	1000	0.1	0.01	0	0	1;
	21745	0.0	0.0	1.00	144.0900	72.0450	51.8724	0.9	0.85	1000	-1000	1000	0.1	0.01	0	0	1;
	84086	0.0	0.0	1.00	139.5150	69.7575	50.2254	0.9	0.85	1000	-1000	1000	0.1	0.01	0	0	1;
	82662	0.0	0.0	1.00	139.1700	69.5850	50.1012	0.9	0.85	1000	-1000	1000	0.1	0.01	0	0	1;
	82487	0.0	0.0	1.00	134.8350	67.4175	48.5406	0.9	0.85	1000	-1000	1000	0.1	0.01	0	0	1;
	84502	0.0	0.0	1.00	132.0750	66.0375	47.5470	0.9	0.85	1000	-1000	1000	0.1	0.01	0	0	1;
	21086	0.0	0.0	1.00	131.6850	65.8425	47.4066	0.9	0.85	1000	-1000	1000	0.1	0.01	0	0	1;
	27666	0.0	0.0	1.00	131.0850	65.5425	47.1906	0.9	0.85	1000	-1000	1000	0.1	0.01	0	0	1;
	82329	0.0	0.0	1.00	130.0950	65.0475	46.8342	0.9	0.85	1000	-1000	1000	0.1	0.01	0	0	1;
	21041	0.0	0.0	1.00	129.9900	64.9950	46.7964	0.9	0.85	1000	-1000	1000	0.1	0.01	0	0	1;
	20887	0.0	0.0	1.00	129.8400	64.9200	46.7424	0.9	0.85	1000	-1000	1000	0.1	0.01	0	0	1;
...